1A7X
     RDKit          3D

 67 71  0  0  1  0  0  0  0  0999 V2000
   20.4944   63.3390   46.8951 O   0  0  0  0  0  0  0  0  0  0  0  0
   21.5654   63.8940   47.4481 C   0  0  0  0  0  0  0  0  0  0  0  0
   21.5814   65.0860   47.7851 O   0  0  0  0  0  0  0  0  0  0  0  0
   22.7784   63.0050   47.6371 C   0  0  0  0  0  0  0  0  0  0  0  0
   23.9104   63.4890   46.7691 C   0  0  0  0  0  0  0  0  0  0  0  0
   23.8084   63.0840   45.3031 C   0  0  0  0  0  0  0  0  0  0  0  0
   23.5694   61.6060   45.1741 C   0  0  0  0  0  0  0  0  0  0  0  0
   22.2604   61.3750   45.8581 C   0  0  0  0  0  0  0  0  0  0  0  0
   22.5184   61.6130   47.2661 N   0  0  0  0  0  0  0  0  0  0  0  0
   22.3554   60.6610   48.1731 C   0  0  0  0  0  0  0  0  0  0  0  0
   22.4124   61.0030   49.3581 O   0  0  0  0  0  0  0  0  0  0  0  0
   22.1334   59.3140   47.8011 C   0  0  0  0  0  0  0  0  0  0  0  0
   23.0734   58.5600   47.5361 O   0  0  0  0  0  0  0  0  0  0  0  0
   20.7364   58.7270   47.6901 C   0  0  0  0  0  0  0  0  0  0  0  0
   19.7074   59.4080   48.6071 C   0  0  0  0  0  0  0  0  0  0  0  0
   18.3234   59.1130   48.0671 C   0  0  0  0  0  0  0  0  0  0  0  0
   18.1344   59.2970   46.5651 C   0  0  0  0  0  0  0  0  0  0  0  0
   19.2054   58.4660   45.8191 C   0  0  0  0  0  0  0  0  0  0  0  0
   20.4684   58.9430   46.3021 O   0  0  0  0  0  0  0  0  0  0  0  0
   20.7214   57.3440   47.9971 O   0  0  0  0  0  0  0  0  0  0  0  0
   19.8154   58.9290   50.0471 C   0  0  0  0  0  0  0  0  0  0  0  0
   16.7824   58.9610   46.1981 O   0  0  0  0  0  0  0  0  0  0  0  0
   15.8494   59.9970   46.5961 C   0  0  0  0  0  0  0  0  0  0  0  0
   19.2644   58.6370   44.2851 C   0  0  0  0  0  0  0  0  0  0  0  0
   18.2434   57.8750   43.6321 O   0  0  0  0  0  0  0  0  0  0  0  0
   18.6204   56.4960   43.4691 C   0  0  0  0  0  0  0  0  0  0  0  0
   19.1784   60.1200   43.8921 C   0  0  0  0  0  0  0  0  0  0  0  0
   19.3594   60.4780   42.4021 C   0  0  0  0  0  0  0  0  0  0  0  0
   20.5484   59.7190   41.8251 C   0  0  0  0  0  0  0  0  0  0  0  0
   18.0454   60.1690   41.6341 C   0  0  0  0  0  0  0  0  0  0  0  0
   16.9884   61.2710   41.8161 C   0  0  0  0  0  0  0  0  0  0  0  0
   17.0864   62.4000   40.7861 C   0  0  0  0  0  0  0  0  0  0  0  0
   16.0964   61.2260   42.7951 C   0  0  0  0  0  0  0  0  0  0  0  0
   15.1364   62.3430   43.1051 C   0  0  0  0  0  0  0  0  0  0  0  0
   13.7794   61.8130   43.4861 C   0  0  0  0  0  0  0  0  0  0  0  0
   15.6954   63.0940   44.2891 C   0  0  0  0  0  0  0  0  0  0  0  0
   15.4424   62.7810   45.4561 O   0  0  0  0  0  0  0  0  0  0  0  0
   16.6064   64.2460   43.9331 C   0  0  0  0  0  0  0  0  0  0  0  0
   17.4874   64.7030   45.0711 C   0  0  0  0  0  0  0  0  0  0  0  0
   17.9884   65.9470   44.6151 O   0  0  0  0  0  0  0  0  0  0  0  0
   18.7214   63.7790   45.3541 C   0  0  0  0  0  0  0  0  0  0  0  0
   19.7784   63.8070   44.2531 C   0  0  0  0  0  0  0  0  0  0  0  0
   19.4464   64.2710   46.6041 C   0  0  0  0  0  0  0  0  0  0  0  0
   18.5444   64.3110   47.8111 C   0  0  0  0  0  0  0  0  0  0  0  0
   17.9544   63.0020   48.3351 C   0  0  0  0  0  0  0  0  0  0  0  0
   18.3164   65.4750   48.3501 C   0  0  0  0  0  0  0  0  0  0  0  0
   17.4214   65.6170   49.5501 C   0  0  0  0  0  0  0  0  0  0  0  0
   18.1284   66.4390   50.6111 C   0  0  0  0  0  0  0  0  0  0  0  0
   17.2584   66.7430   51.7911 C   0  0  0  0  0  0  0  0  0  0  0  0
   16.0314   67.4980   51.3031 C   0  0  0  0  0  0  0  0  0  0  0  0
   15.2864   66.7040   50.2561 C   0  0  0  0  0  0  0  0  0  0  0  0
   16.1654   66.3290   49.0891 C   0  0  0  0  0  0  0  0  0  0  0  0
   17.8734   67.4760   52.8521 O   0  0  0  0  0  0  0  0  0  0  0  0
   18.6644   66.6720   53.7471 C   0  0  0  0  0  0  0  0  0  0  0  0
   15.1664   67.7140   52.4141 O   0  0  0  0  0  0  0  0  0  0  0  0
   12.9194   61.4340   42.2661 C   0  0  0  0  0  0  0  0  0  0  0  0
   11.7114   61.1050   42.7161 O   0  0  0  0  0  0  0  0  0  0  0  0
   10.8034   61.9860   42.3821 C   0  0  0  0  0  0  0  0  0  0  0  0
   11.0814   63.0670   41.8641 O   0  0  0  0  0  0  0  0  0  0  0  0
    9.5674   61.5860   42.6921 N   0  0  0  0  0  0  0  0  0  0  0  0
    8.4754   62.4060   42.2201 C   0  0  0  0  0  0  0  0  0  0  0  0
    7.1814   62.4220   42.8761 C   0  0  0  0  0  0  0  0  0  0  0  0
    7.2204   62.4160   44.2601 C   0  0  0  0  0  0  0  0  0  0  0  0
    6.0504   62.4170   44.9881 C   0  0  0  0  0  0  0  0  0  0  0  0
    4.8344   62.4150   44.3441 C   0  0  0  0  0  0  0  0  0  0  0  0
    4.7974   62.4230   42.9651 C   0  0  0  0  0  0  0  0  0  0  0  0
    5.9654   62.4210   42.2231 C   0  0  0  0  0  0  0  0  0  0  0  0
  1  2  1  0
  1 43  1  0
  2  3  2  0
  2  4  1  0
  4  5  1  0
  4  9  1  0
  5  6  1  0
  6  7  1  0
  7  8  1  0
  8  9  1  0
  9 10  1  0
 10 11  2  0
 10 12  1  0
 12 13  2  0
 12 14  1  0
 14 15  1  0
 14 19  1  0
 14 20  1  0
 15 16  1  0
 15 21  1  0
 16 17  1  0
 17 18  1  0
 17 22  1  0
 18 19  1  0
 18 24  1  0
 22 23  1  0
 24 25  1  0
 24 27  1  0
 25 26  1  0
 27 28  1  0
 28 29  1  0
 28 30  1  0
 30 31  1  0
 31 32  1  0
 31 33  2  0
 33 34  1  0
 34 35  1  0
 34 36  1  0
 35 56  1  0
 36 37  2  0
 36 38  1  0
 38 39  1  0
 39 40  1  0
 39 41  1  0
 41 42  1  0
 41 43  1  0
 43 44  1  0
 44 45  1  0
 44 46  2  0
 46 47  1  0
 47 48  1  0
 47 52  1  0
 48 49  1  0
 49 50  1  0
 49 53  1  0
 50 51  1  0
 50 55  1  0
 51 52  1  0
 53 54  1  0
 56 57  1  0
 57 58  1  0
 58 59  2  0
 58 60  1  0
 60 61  1  0
 61 62  1  0
 62 63  2  0
 62 67  1  0
 63 64  1  0
 64 65  2  0
 65 66  1  0
 66 67  2  0
M  END
>  <s_m_entry_id>  (1) 
1059

>  <s_m_entry_name>  (1) 
1a7x.1

>  <s_pdb_PDB_TITLE>  (1) 
FKBP12-FK1012 COMPLEX

>  <s_m_Source_Path>  (1) 
/nfs/zone2/sindhikara/master/src/validation_scripts/tests/prime/macrocycle/BMS208

>  <s_m_Source_File>  (1) 
208refs.maegz

>  <i_m_Source_File_Index>  (1) 
149

>  <s_pdb_PDB_ID>  (1) 
1A7X

>  <r_pdb_PDB_RESOLUTION>  (1) 
2

>  <s_m_Molecular_formula>  (1) 
C51H76N2O14

>  <r_m_Molecular_weight>  (1) 
941.17937

>  <i_m_Number_of_heavy_atoms>  (1) 
67

>  <i_m_Number_of_atoms>  (1) 
143

>  <s_user_Group>  (1) 
Example PDB

>  <s_user_Preparation>  (1) 
reference

>  <s_user_Primary_PMID>  (1) 
9871618                                                      

>  <s_user_Primary_DOI>  (1) 
10.1016/S0960-894X(97)10195-0    

>  <s_user_Unique_SMILES>  (1) 
C1C[C@@H](O)[C@H](OC)C[C@@H]1/C=C(\C)[C@@H](OC(=O)[C@H]2N(C(=O)C3=O)CCCC2)[C@H](C)[C@@H](O)CC(=O)[C@H](CCOC(=O)NCc4ccccc4)/C=C(\C)C[C@H](C)C[C@H](OC)[C@@H](O5)[C@@H](OC)C[C@@H](C)[C@]35O

>  <s_user_Source>  (1) 
PDB

>  <s_user_InChI1S_Key>  (1) 
InChIKey=JEQCTALUECDHLT-VQBDMAPKSA-N

>  <s_user_Sample>  (1) 
TRAIN

>  <s_m_subgroup_title>  (1) 
208refs

>  <s_m_subgroupid>  (1) 
208refs

>  <b_m_subgroup_collapsed>  (1) 
0

$$$$
1BXO
     RDKit          3D

 44 45  0  0  1  0  0  0  0  0999 V2000
   14.5402   58.9838   43.1756 N   0  0  0  0  0  0  0  0  0  0  0  0
   12.5812   57.7238   42.4736 C   0  0  0  0  0  0  0  0  0  0  0  0
   15.7952   59.2658   43.8686 C   0  0  0  0  0  0  0  0  0  0  0  0
   11.3302   57.5568   43.2896 C   0  0  0  0  0  0  0  0  0  0  0  0
   17.0122   59.1588   42.9576 C   0  0  0  0  0  0  0  0  0  0  0  0
   11.1782   58.5888   44.2966 C   0  0  0  0  0  0  0  0  0  0  0  0
   17.1672   57.7828   42.3806 C   0  0  0  0  0  0  0  0  0  0  0  0
   10.1072   57.4418   42.3216 C   0  0  0  0  0  0  0  0  0  0  0  0
   17.0162   60.2478   41.9006 C   0  0  0  0  0  0  0  0  0  0  0  0
   13.8172   57.8908   43.3236 C   0  0  0  0  0  0  0  0  0  0  0  0
   15.6862   60.6308   44.5926 C   0  0  0  0  0  0  0  0  0  0  0  0
   14.1952   56.9548   44.0936 O   0  0  0  0  0  0  0  0  0  0  0  0
   14.8562   61.4838   44.2606 O   0  0  0  0  0  0  0  0  0  0  0  0
   16.5982   60.8078   45.5486 N   0  0  0  0  0  0  0  0  0  0  0  0
   16.6042   61.9948   46.4286 C   0  0  0  0  0  0  0  0  0  0  0  0
   15.8602   61.6928   47.7176 C   0  0  0  0  0  0  0  0  0  0  0  0
   15.6792   62.7958   48.7276 C   0  0  0  0  0  0  0  0  0  0  0  0
   15.5532   62.5028   49.9436 O   0  0  0  0  0  0  0  0  0  0  0  0
   15.5662   64.0268   48.3246 N   0  0  0  0  0  0  0  0  0  0  0  0
   15.1532   65.1438   49.1856 C   0  0  0  0  0  0  0  0  0  0  0  0
   18.0442   62.4008   46.6686 C   0  0  0  0  0  0  0  0  0  0  0  0
   18.6692   62.0268   47.6856 O   0  0  0  0  0  0  0  0  0  0  0  0
   18.6282   63.1548   45.7156 N   0  0  0  0  0  0  0  0  0  0  0  0
   20.0422   63.5138   45.6786 C   0  0  0  0  0  0  0  0  0  0  0  0
   20.7232   62.9898   44.3986 C   0  0  0  0  0  0  0  0  0  0  0  0
   20.4602   61.5268   44.0346 C   0  0  0  0  0  0  0  0  0  0  0  0
   21.0882   61.1548   42.7126 C   0  0  0  0  0  0  0  0  0  0  0  0
   20.9172   60.5798   45.1596 C   0  0  0  0  0  0  0  0  0  0  0  0
   20.2112   65.3158   45.8446 P   0  0  0  0  0  0  0  0  0  0  0  0
   19.2432   65.9558   44.8776 O   0  0  0  0  0  0  0  0  0  0  0  0
   21.6602   65.7138   45.7086 O   0  0  0  0  0  0  0  0  0  0  0  0
   19.8432   65.5928   47.3656 O   0  0  0  0  0  0  0  0  0  0  0  0
   20.4552   66.6398   48.1476 C   0  0  0  0  0  0  0  0  0  0  0  0
   19.3962   67.7348   48.4566 C   0  0  0  0  0  0  0  0  0  0  0  0
   22.0022   66.6648   51.5226 C   0  0  0  0  0  0  0  0  0  0  0  0
   18.3062   67.2988   49.3586 C   0  0  0  0  0  0  0  0  0  0  0  0
   18.2092   67.7548   50.6916 C   0  0  0  0  0  0  0  0  0  0  0  0
   17.2962   66.4348   48.9216 C   0  0  0  0  0  0  0  0  0  0  0  0
   17.1772   67.3348   51.5166 C   0  0  0  0  0  0  0  0  0  0  0  0
   16.2272   66.4248   51.0696 C   0  0  0  0  0  0  0  0  0  0  0  0
   16.2712   65.9988   49.7266 C   0  0  0  0  0  0  0  0  0  0  0  0
   21.0132   66.0468   49.4336 C   0  0  0  0  0  0  0  0  0  0  0  0
   21.4652   66.9948   50.2086 O   0  0  0  0  0  0  0  0  0  0  0  0
   21.0162   64.8838   49.6986 O   0  0  0  0  0  0  0  0  0  0  0  0
  1  3  1  0
  1 10  1  0
  2  4  1  0
  2 10  1  0
  3  5  1  0
  3 11  1  0
  4  6  1  0
  4  8  1  0
  5  7  1  0
  5  9  1  0
 10 12  2  0
 11 13  2  0
 11 14  1  0
 14 15  1  0
 15 16  1  0
 15 21  1  0
 16 17  1  0
 17 18  2  0
 17 19  1  0
 19 20  1  0
 20 41  1  0
 21 22  2  0
 21 23  1  0
 23 24  1  0
 24 25  1  0
 24 29  1  0
 25 26  1  0
 26 27  1  0
 26 28  1  0
 29 30  2  0
 29 31  1  0
 29 32  1  0
 32 33  1  0
 33 34  1  0
 33 42  1  0
 34 36  1  0
 35 43  1  0
 36 37  2  0
 36 38  1  0
 37 39  1  0
 38 41  2  0
 39 40  2  0
 40 41  1  0
 42 43  1  0
 42 44  2  0
M  CHG  1  31  -1
M  END
>  <s_m_entry_id>  (2) 
1060

>  <s_m_entry_name>  (2) 
1bxo.1

>  <s_pdb_PDB_TITLE>  (2) 
ACID PROTEINASE (PENICILLOPEPSIN) (E.C.3.4.23.20) COMPLEX WITH PHOSPHONATE INHIBITOR: METHYL CYCLO[(2S)-2-[[(1R)-1- (N-(L-N-(3-METHYLBUTANOYL)VALYL-L-ASPARTYL)AMINO)-3- METHYLBUT YL] HYDROXYPHOSPHINYLOXY]-3-(3-AMINOMETHYL) PHENYLPROPANOATE

>  <s_m_Source_Path>  (2) 
/nfs/zone2/sindhikara/master/src/validation_scripts/tests/prime/macrocycle/BMS208

>  <s_m_Source_File>  (2) 
208refs.maegz

>  <i_m_Source_File_Index>  (2) 
150

>  <s_pdb_PDB_ID>  (2) 
1BXO

>  <r_pdb_PDB_R>  (2) 
0.099

>  <r_pdb_PDB_Rfree>  (2) 
0.125

>  <r_pdb_PDB_RESOLUTION>  (2) 
0.95

>  <s_m_Molecular_formula>  (2) 
C30H46N4O9P1

>  <r_m_Molecular_weight>  (2) 
637.69632

>  <i_m_Number_of_heavy_atoms>  (2) 
44

>  <i_m_Number_of_atoms>  (2) 
90

>  <s_user_Group>  (2) 
Example PDB

>  <s_user_Preparation>  (2) 
reference

>  <s_user_Primary_PMID>  (2) 
9836576                                                      

>  <s_user_Primary_DOI>  (2) 
10.1021/BI9821364      

>  <s_user_Unique_SMILES>  (2) 
CC(C)CC(=O)N[C@@H](C(C)C)C(=O)N[C@@H](CC(=O)NCc(cc12)ccc1)C(=O)N[C@@H](CC(C)C)P([O-])(=O)O[C@@H](C2)C(=O)OC

>  <s_user_Source>  (2) 
PDB

>  <s_user_InChI1S_Key>  (2) 
InChIKey=BOYAGOIPWLIWCX-IDJLGEMNSA-N

>  <s_user_Sample>  (2) 
TRAIN

>  <s_m_subgroup_title>  (2) 
208refs

>  <s_m_subgroupid>  (2) 
208refs

>  <b_m_subgroup_collapsed>  (2) 
0

$$$$
1BZL
     RDKit          3D

 48 48  0  0  1  0  0  0  0  0999 V2000
   26.8630   14.1680   -4.0330 C   0  0  0  0  0  0  0  0  0  0  0  0
   27.5410   13.2940   -5.0980 C   0  0  0  0  0  0  0  0  0  0  0  0
   27.4180   15.2240   -3.6870 O   0  0  0  0  0  0  0  0  0  0  0  0
   25.7810   13.8110   -3.5700 O   0  0  0  0  0  0  0  0  0  0  0  0
   28.2070   12.0430   -4.4600 C   0  0  0  0  0  0  0  0  0  0  0  0
   28.5800   14.1670   -5.7130 N   0  0  0  0  0  0  0  0  0  0  0  0
   27.2490   10.8760   -4.1440 C   0  0  0  0  0  0  0  0  0  0  0  0
   26.4640   10.4510   -5.3540 C   0  0  0  0  0  0  0  0  0  0  0  0
   27.0380   10.1080   -6.3870 O   0  0  0  0  0  0  0  0  0  0  0  0
   25.1670   10.4630   -5.2320 N   0  0  0  0  0  0  0  0  0  0  0  0
   24.2240   10.1150   -6.2860 C   0  0  0  0  0  0  0  0  0  0  0  0
   23.1700   11.2160   -6.2610 C   0  0  0  0  0  0  0  0  0  0  0  0
   22.7040   11.5780   -5.1770 O   0  0  0  0  0  0  0  0  0  0  0  0
   23.5760    8.7480   -6.0050 C   0  0  0  0  0  0  0  0  0  0  0  0
   24.0330    7.3540   -7.1280 S   0  0  0  0  0  0  0  0  0  0  0  0
   22.8040   11.7370   -7.4400 N   0  0  0  0  0  0  0  0  0  0  0  0
   21.8260   12.8110   -7.5260 C   0  0  0  0  0  0  0  0  0  0  0  0
   20.5460   12.6270   -6.7310 C   0  0  0  0  0  0  0  0  0  0  0  0
   20.0420   11.5090   -6.5870 O   0  0  0  0  0  0  0  0  0  0  0  0
   20.0100   13.7480   -6.2230 N   0  0  0  0  0  0  0  0  0  0  0  0
   18.7810   13.8020   -5.4330 C   0  0  0  0  0  0  0  0  0  0  0  0
   18.9760   14.0180   -3.9310 C   0  0  0  0  0  0  0  0  0  0  0  0
   18.9100   12.7070   -3.1660 C   0  0  0  0  0  0  0  0  0  0  0  0
   20.1160   11.7600   -3.2840 C   0  0  0  0  0  0  0  0  0  0  0  0
   18.5890    9.9160   -2.5250 C   0  0  0  0  0  0  0  0  0  0  0  0
   19.7400   10.3410   -3.3330 N   0  0  0  0  0  0  0  0  0  0  0  0
   18.2850    8.4100   -2.5350 C   0  0  0  0  0  0  0  0  0  0  0  0
   19.2690    7.6430   -1.6620 C   0  0  0  0  0  0  0  0  0  0  0  0
   20.1820    6.7060   -2.3140 N   0  0  0  0  0  0  0  0  0  0  0  0
   21.2270    7.0670   -3.0770 C   0  0  0  0  0  0  0  0  0  0  0  0
   23.3800    6.4660   -3.9620 N   0  0  0  0  0  0  0  0  0  0  0  0
   22.0690    5.9430   -3.6450 C   0  0  0  0  0  0  0  0  0  0  0  0
   21.5060    8.2460   -3.3290 O   0  0  0  0  0  0  0  0  0  0  0  0
   24.4840    5.7260   -3.8750 C   0  0  0  0  0  0  0  0  0  0  0  0
   26.7130    6.5340   -3.1490 N   0  0  0  0  0  0  0  0  0  0  0  0
   25.7620    6.4540   -4.2590 C   0  0  0  0  0  0  0  0  0  0  0  0
   24.4980    4.5550   -3.4840 O   0  0  0  0  0  0  0  0  0  0  0  0
   26.3590    5.8090   -5.5010 C   0  0  0  0  0  0  0  0  0  0  0  0
   25.9590    6.7160   -7.0640 S   0  0  0  0  0  0  0  0  0  0  0  0
   28.0030    6.9450   -3.1600 C   0  0  0  0  0  0  0  0  0  0  0  0
   31.4700    4.3090   -1.3180 C   0  0  0  0  0  0  0  0  0  0  0  0
   30.0880    4.9530   -1.2410 C   0  0  0  0  0  0  0  0  0  0  0  0
   32.0810    4.1340   -0.2510 O   0  0  0  0  0  0  0  0  0  0  0  0
   31.9160    3.9550   -2.4110 O   0  0  0  0  0  0  0  0  0  0  0  0
   30.0890    6.3140   -1.8730 C   0  0  0  0  0  0  0  0  0  0  0  0
   29.6910    5.0720    0.1860 N   0  0  0  0  0  0  0  0  0  0  0  0
   28.7220    6.9700   -1.8280 C   0  0  0  0  0  0  0  0  0  0  0  0
   28.6040    7.2440   -4.1900 O   0  0  0  0  0  0  0  0  0  0  0  0
  1  2  1  0
  1  3  2  0
  1  4  1  0
  2  5  1  0
  2  6  1  0
  5  7  1  0
  7  8  1  0
  8  9  2  0
  8 10  1  0
 10 11  1  0
 11 12  1  0
 11 14  1  0
 12 13  2  0
 12 16  1  0
 14 15  1  0
 15 39  1  0
 16 17  1  0
 17 18  1  0
 18 19  2  0
 18 20  1  0
 20 21  1  0
 21 22  1  0
 22 23  1  0
 23 24  1  0
 24 26  1  0
 25 26  1  0
 25 27  1  0
 27 28  1  0
 28 29  1  0
 29 30  1  0
 30 32  1  0
 30 33  2  0
 31 32  1  0
 31 34  1  0
 34 36  1  0
 34 37  2  0
 35 36  1  0
 35 40  1  0
 36 38  1  0
 38 39  1  0
 40 47  1  0
 40 48  2  0
 41 42  1  0
 41 43  2  0
 41 44  1  0
 42 45  1  0
 42 46  1  0
 45 47  1  0
M  CHG  5   4  -1   6   1  26   1  44  -1  46   1
M  END
>  <s_m_entry_id>  (3) 
1061

>  <s_m_entry_name>  (3) 
1bzl.1

>  <s_pdb_PDB_TITLE>  (3) 
CRYSTAL STRUCTURE OF TRYPANOSOMA CRUZI TRYPANOTHIONE REDUCTASE IN COMPLEX WITH TRYPANOTHIONE, AND THE STRUCTURE- BASED DISCOVERY OF NEW NATURAL PRODUCT INHIBITORS

>  <s_m_Source_Path>  (3) 
/nfs/zone2/sindhikara/master/src/validation_scripts/tests/prime/macrocycle/BMS208

>  <s_m_Source_File>  (3) 
208refs.maegz

>  <i_m_Source_File_Index>  (3) 
151

>  <s_pdb_PDB_ID>  (3) 
1BZL

>  <r_pdb_PDB_R>  (3) 
0.209

>  <r_pdb_PDB_RESOLUTION>  (3) 
2.4

>  <s_m_Molecular_formula>  (3) 
C27H48N9O10S2

>  <r_m_Molecular_weight>  (3) 
722.86591

>  <i_m_Number_of_heavy_atoms>  (3) 
48

>  <i_m_Number_of_atoms>  (3) 
96

>  <s_user_Group>  (3) 
Example PDB

>  <s_user_Preparation>  (3) 
reference

>  <s_user_Primary_PMID>  (3) 
10368274                                                     

>  <s_user_Primary_DOI>  (3) 
10.1016/S0969-2126(99)80011-2    

>  <s_user_Unique_SMILES>  (3) 
[O-]C(=O)[C@@H]([NH3+])CCC(=O)N[C@H](C1=O)CSSC[C@H](NC(=O)CC[C@@H](C([O-])=O)[NH3+])C(=O)NCC(=O)NCCC[NH2+]CCCCNC(=O)CN1

>  <s_user_Source>  (3) 
PDB

>  <s_user_InChI1S_Key>  (3) 
InChIKey=LZMSXDHGHZKXJD-VJANTYMQSA-N

>  <s_user_Sample>  (3) 
TEST

>  <s_m_subgroup_title>  (3) 
208refs

>  <s_m_subgroupid>  (3) 
208refs

>  <b_m_subgroup_collapsed>  (3) 
0

$$$$
1CPI_conf1
     RDKit          3D

 49 51  0  0  1  0  0  0  0  0999 V2000
   -8.9230   -2.6755    1.4595 N   0  0  0  0  0  0  0  0  0  0  0  0
   -7.5215   -2.4745    1.0546 C   0  0  0  0  0  0  0  0  0  0  0  0
   -6.9990   -1.2293    1.7422 C   0  0  0  0  0  0  0  0  0  0  0  0
   -7.5786   -0.1459    1.5383 O   0  0  0  0  0  0  0  0  0  0  0  0
   -7.4848   -2.2468   -0.4276 C   0  0  0  0  0  0  0  0  0  0  0  0
   -6.0656   -2.0389   -0.8666 C   0  0  0  0  0  0  0  0  0  0  0  0
   -5.0850   -2.0528   -0.1274 O   0  0  0  0  0  0  0  0  0  0  0  0
   -5.9855   -1.8322   -2.1816 N   0  0  0  0  0  0  0  0  0  0  0  0
   -3.8076   -0.2588    3.2051 C   0  0  0  0  0  0  0  0  0  0  0  0
   -5.8409   -1.3246    2.6390 N   0  0  0  0  0  0  0  0  0  0  0  0
   -3.3730   -1.4336    3.7842 O   0  0  0  0  0  0  0  0  0  0  0  0
  -11.3246   -0.8600    3.2279 C   0  0  0  0  0  0  0  0  0  0  0  0
   -8.3465   -3.5523    3.5792 O   0  0  0  0  0  0  0  0  0  0  0  0
   -9.2579   -3.1907    2.7912 C   0  0  0  0  0  0  0  0  0  0  0  0
  -10.6884   -3.3203    3.2418 C   0  0  0  0  0  0  0  0  0  0  0  0
  -11.6736   -2.2767    2.8814 C   0  0  0  0  0  0  0  0  0  0  0  0
   -3.4308   -0.2477    1.7532 C   0  0  0  0  0  0  0  0  0  0  0  0
   -5.2985   -0.1587    3.3356 C   0  0  0  0  0  0  0  0  0  0  0  0
   -5.5679   -0.1852    4.8176 C   0  0  0  0  0  0  0  0  0  0  0  0
   -7.0193   -0.1181    5.1742 C   0  0  0  0  0  0  0  0  0  0  0  0
  -11.0978   -0.6743    4.5488 O   0  0  0  0  0  0  0  0  0  0  0  0
   -9.8639   -0.3604    5.0450 C   0  0  0  0  0  0  0  0  0  0  0  0
   -7.8118    1.0454    4.8300 C   0  0  0  0  0  0  0  0  0  0  0  0
   -7.6671   -1.2358    5.8339 C   0  0  0  0  0  0  0  0  0  0  0  0
   -9.2525    0.9266    4.7704 C   0  0  0  0  0  0  0  0  0  0  0  0
   -9.1098   -1.3319    5.8098 C   0  0  0  0  0  0  0  0  0  0  0  0
   -2.5616    0.8942    1.4847 N   0  0  0  0  0  0  0  0  0  0  0  0
   -2.1420    0.9529   -0.0000 C   0  0  0  0  0  0  0  0  0  0  0  0
   -0.6565    1.1608    0.0000 C   0  0  0  0  0  0  0  0  0  0  0  0
   -0.0927    2.2518    0.0000 O   0  0  0  0  0  0  0  0  0  0  0  0
   -2.8917    2.1602   -0.5656 C   0  0  0  0  0  0  0  0  0  0  0  0
   -2.9860    3.1249    0.6134 C   0  0  0  0  0  0  0  0  0  0  0  0
   -3.2802    2.2211    1.8117 C   0  0  0  0  0  0  0  0  0  0  0  0
    0.0000    0.0000    0.0000 N   0  0  0  0  0  0  0  0  0  0  0  0
    1.4600    0.0000    0.0000 C   0  0  0  0  0  0  0  0  0  0  0  0
    1.9600   -1.4142   -0.0000 C   0  0  0  0  0  0  0  0  0  0  0  0
    1.3781   -2.3725    0.5012 O   0  0  0  0  0  0  0  0  0  0  0  0
    1.9600    0.7071    1.2247 C   0  0  0  0  0  0  0  0  0  0  0  0
    3.4600    0.7071    1.2247 C   0  0  0  0  0  0  0  0  0  0  0  0
    1.4600    0.0000    2.4495 C   0  0  0  0  0  0  0  0  0  0  0  0
    3.9600    1.4142    2.4495 C   0  0  0  0  0  0  0  0  0  0  0  0
    3.1360   -1.5174   -0.6203 N   0  0  0  0  0  0  0  0  0  0  0  0
    3.7832   -2.8222   -0.7214 C   0  0  0  0  0  0  0  0  0  0  0  0
    2.7377   -3.8971   -0.7620 C   0  0  0  0  0  0  0  0  0  0  0  0
    2.6257   -4.8091    0.0528 O   0  0  0  0  0  0  0  0  0  0  0  0
    4.6715   -3.0334    0.4687 C   0  0  0  0  0  0  0  0  0  0  0  0
    3.8494   -2.9788    1.7221 C   0  0  0  0  0  0  0  0  0  0  0  0
    5.3363   -4.3740    0.3647 C   0  0  0  0  0  0  0  0  0  0  0  0
    1.9231   -3.7482   -1.8073 N   0  0  0  0  0  0  0  0  0  0  0  0
  1  2  1  0
  1 14  1  0
  2  3  1  0
  2  5  1  0
  3  4  2  0
  3 10  1  0
  5  6  1  0
  6  7  2  0
  6  8  1  0
  9 11  1  0
  9 17  1  0
  9 18  1  0
 10 18  1  0
 12 16  1  0
 12 21  1  0
 13 14  2  0
 14 15  1  0
 15 16  1  0
 17 27  1  0
 18 19  1  0
 19 20  1  0
 20 23  2  0
 20 24  1  0
 21 22  1  0
 22 25  2  0
 22 26  1  0
 23 25  1  0
 24 26  2  0
 27 28  1  0
 27 33  1  0
 28 29  1  0
 28 31  1  0
 29 30  2  0
 29 34  1  0
 31 32  1  0
 32 33  1  0
 34 35  1  0
 35 36  1  0
 35 38  1  0
 36 37  2  0
 36 42  1  0
 38 39  1  0
 38 40  1  0
 39 41  1  0
 42 43  1  0
 43 44  1  0
 43 46  1  0
 44 45  2  0
 44 49  1  0
 46 47  1  0
 46 48  1  0
M  CHG  1  27   1
M  END
>  <i_m_stars>  (4) 
3

>  <s_m_entry_id>  (4) 
1053

>  <s_m_entry_name>  (4) 
208refs.143

>  <s_m_Source_Path>  (4) 
/nfs/zone2/sindhikara/master/src/validation_scripts/tests/prime/macrocycle/BMS208

>  <s_m_Source_File>  (4) 
208refs.maegz

>  <i_m_Source_File_Index>  (4) 
143

>  <r_lp_tautomer_probability>  (4) 
1

>  <r_epik_Ionization_Penalty>  (4) 
  0.0185

>  <r_epik_Ionization_Penalty_Charging>  (4) 
  0.0161

>  <r_epik_Ionization_Penalty_Neutral>  (4) 
  0.0025

>  <r_epik_State_Penalty>  (4) 
  0.0127

>  <i_epik_Tot_Q>  (4) 
1

>  <i_lp_mmshare_version>  (4) 
32003

>  <r_pdb_PDB_RESOLUTION>  (4) 
2.05

>  <r_pdb_PDB_EXPDTA_PH>  (4) 
5.5

>  <s_user_comment>  (4) 
moderately good b factors throughout; assume protonated pyrrolidine

>  <r_f3d_energy>  (4) 
278.006578612761

>  <s_user_Group>  (4) 
A1

>  <s_user_mc_backbone_quality>  (4) 
A

>  <s_user_overall_b-factors>  (4) 
A

>  <s_user_ligand_name>  (4) 
1-{(2R)-2-[(8R,11S)-8-(2-amino-2-oxoethyl)-6,9-dioxo-2-oxa-7,10-diazabicyclo[11.2.2]heptadeca-1(15),13,16-trien-11-yl]-2-hydroxyethyl}-L-prolyl-L-isoleucyl-L-valinamide

>  <s_user_rep>  (4) 
1

>  <s_m_subgroup_title>  (4) 
208refs

>  <s_m_subgroupid>  (4) 
208refs

>  <b_m_subgroup_collapsed>  (4) 
0

$$$$
1E9W
     RDKit          3D

114123  0  0  1  0  0  0  0  0999 V2000
   15.9744   61.6376   42.3800 N   0  0  0  0  0  0  0  0  0  0  0  0
   15.2574   62.8016   41.9480 C   0  0  0  0  0  0  0  0  0  0  0  0
   16.0914   63.5276   40.9250 C   0  0  0  0  0  0  0  0  0  0  0  0
   17.2214   63.1566   40.6470 O   0  0  0  0  0  0  0  0  0  0  0  0
   14.9294   63.6526   43.1740 C   0  0  0  0  0  0  0  0  0  0  0  0
   13.8604   64.5636   42.7910 O   0  0  0  0  0  0  0  0  0  0  0  0
   16.1634   64.4916   43.7060 C   0  0  0  0  0  0  0  0  0  0  0  0
   11.3664   65.1846   48.3530 N   0  0  0  0  0  0  0  0  0  0  0  0
   12.0404   66.2376   49.1480 C   0  0  0  0  0  0  0  0  0  0  0  0
   13.2594   65.6966   49.8520 C   0  0  0  0  0  0  0  0  0  0  0  0
   14.0894   66.4286   50.3790 O   0  0  0  0  0  0  0  0  0  0  0  0
   11.1254   66.9646   50.1580 C   0  0  0  0  0  0  0  0  0  0  0  0
   10.4604   65.9536   51.0610 C   0  0  0  0  0  0  0  0  0  0  0  0
   10.1274   67.8676   49.4240 C   0  0  0  0  0  0  0  0  0  0  0  0
    9.8224   66.6046   52.3900 C   0  0  0  0  0  0  0  0  0  0  0  0
   13.4064   64.3376   49.8190 N   0  0  0  0  0  0  0  0  0  0  0  0
   14.5614   63.6896   50.3570 C   0  0  0  0  0  0  0  0  0  0  0  0
   14.4284   62.1816   49.8690 C   0  0  0  0  0  0  0  0  0  0  0  0
   13.4094   61.7196   49.4940 O   0  0  0  0  0  0  0  0  0  0  0  0
   14.5214   63.6066   51.9070 C   0  0  0  0  0  0  0  0  0  0  0  0
   15.6414   61.5236   49.9580 N   0  0  0  0  0  0  0  0  0  0  0  0
   15.8924   60.1996   49.5190 C   0  0  0  0  0  0  0  0  0  0  0  0
   14.9704   59.2856   49.2630 C   0  0  0  0  0  0  0  0  0  0  0  0
   17.3634   60.0516   49.4130 C   0  0  0  0  0  0  0  0  0  0  0  0
   18.1294   61.0036   49.7090 O   0  0  0  0  0  0  0  0  0  0  0  0
   17.8344   58.8986   48.8970 N   0  0  0  0  0  0  0  0  0  0  0  0
   19.2044   58.7876   48.3920 C   0  0  0  0  0  0  0  0  0  0  0  0
   19.0814   58.1806   46.9750 C   0  0  0  0  0  0  0  0  0  0  0  0
   18.5404   57.1186   46.8010 O   0  0  0  0  0  0  0  0  0  0  0  0
   20.0194   57.8546   49.2170 C   0  0  0  0  0  0  0  0  0  0  0  0
   25.7164   55.2076   46.7810 N   0  0  0  0  0  0  0  0  0  0  0  0
   26.2004   53.8116   47.2420 C   0  0  0  0  0  0  0  0  0  0  0  0
   27.2474   53.5306   47.9910 C   0  0  0  0  0  0  0  0  0  0  0  0
   25.4594   52.6806   46.8740 C   0  0  0  0  0  0  0  0  0  0  0  0
   24.6274   52.9556   46.0480 O   0  0  0  0  0  0  0  0  0  0  0  0
   25.6304   51.5956   47.4260 N   0  0  0  0  0  0  0  0  0  0  0  0
   24.9824   50.3356   47.2860 C   0  0  0  0  0  0  0  0  0  0  0  0
   23.8744   50.2136   46.5810 C   0  0  0  0  0  0  0  0  0  0  0  0
   25.8004   49.1806   47.6900 C   0  0  0  0  0  0  0  0  0  0  0  0
   25.3594   47.9346   47.4150 N   0  0  0  0  0  0  0  0  0  0  0  0
   26.8394   49.3566   48.2550 O   0  0  0  0  0  0  0  0  0  0  0  0
   18.1574   58.6526   44.0400 C   0  0  0  0  0  0  0  0  0  0  0  0
   17.5264   59.7136   43.6160 N   0  0  0  0  0  0  0  0  0  0  0  0
   17.0964   57.2596   44.1060 S   0  0  0  0  0  0  0  0  0  0  0  0
   16.2224   59.4946   43.3090 C   0  0  0  0  0  0  0  0  0  0  0  0
   15.8054   58.1596   43.5980 C   0  0  0  0  0  0  0  0  0  0  0  0
   15.3824   60.5486   42.8410 C   0  0  0  0  0  0  0  0  0  0  0  0
   14.1044   60.4356   42.8050 O   0  0  0  0  0  0  0  0  0  0  0  0
   16.5114   65.0136   38.1820 C   0  0  0  0  0  0  0  0  0  0  0  0
   16.4404   63.5506   37.7190 C   0  0  0  0  0  0  0  0  0  0  0  0
   16.1074   65.4476   39.3680 C   0  0  0  0  0  0  0  0  0  0  0  0
   15.4694   64.6046   40.3930 N   0  0  0  0  0  0  0  0  0  0  0  0
   16.2054   66.8396   39.6910 C   0  0  0  0  0  0  0  0  0  0  0  0
   16.6464   67.9596   38.4210 S   0  0  0  0  0  0  0  0  0  0  0  0
   16.7674   69.2746   39.6540 C   0  0  0  0  0  0  0  0  0  0  0  0
   15.8694   68.7966   40.8030 C   0  0  0  0  0  0  0  0  0  0  0  0
   16.4214   70.6376   42.1220 O   0  0  0  0  0  0  0  0  0  0  0  0
   16.2664   69.4476   42.1090 C   0  0  0  0  0  0  0  0  0  0  0  0
   15.8724   67.3286   40.8410 N   0  0  0  0  0  0  0  0  0  0  0  0
   16.6484   69.2466   44.5080 C   0  0  0  0  0  0  0  0  0  0  0  0
   16.2764   68.6856   43.1960 N   0  0  0  0  0  0  0  0  0  0  0  0
   15.5904   68.8956   45.5910 C   0  0  0  0  0  0  0  0  0  0  0  0
   16.0874   69.3026   46.9410 C   0  0  0  0  0  0  0  0  0  0  0  0
   15.3124   67.5046   45.5450 O   0  0  0  0  0  0  0  0  0  0  0  0
   14.2524   69.6006   45.2270 C   0  0  0  0  0  0  0  0  0  0  0  0
   13.0884   69.3156   46.1840 C   0  0  0  0  0  0  0  0  0  0  0  0
   14.5464   71.0166   45.1690 O   0  0  0  0  0  0  0  0  0  0  0  0
   18.0264   68.7236   44.8860 C   0  0  0  0  0  0  0  0  0  0  0  0
   18.3284   67.5056   45.1350 N   0  0  0  0  0  0  0  0  0  0  0  0
   19.3894   69.8196   44.8250 S   0  0  0  0  0  0  0  0  0  0  0  0
   19.6434   67.3716   45.3110 C   0  0  0  0  0  0  0  0  0  0  0  0
   20.4274   68.5496   45.2040 C   0  0  0  0  0  0  0  0  0  0  0  0
   20.2484   66.0736   45.6670 C   0  0  0  0  0  0  0  0  0  0  0  0
   21.4834   65.9116   45.7220 O   0  0  0  0  0  0  0  0  0  0  0  0
   20.1754   60.9906   43.8930 C   0  0  0  0  0  0  0  0  0  0  0  0
   20.1074   61.5726   45.1510 N   0  0  0  0  0  0  0  0  0  0  0  0
   19.9824   61.8576   42.8740 C   0  0  0  0  0  0  0  0  0  0  0  0
   19.8554   62.8356   45.0490 C   0  0  0  0  0  0  0  0  0  0  0  0
   19.6634   63.4286   43.4580 S   0  0  0  0  0  0  0  0  0  0  0  0
   19.7594   63.7716   46.2590 C   0  0  0  0  0  0  0  0  0  0  0  0
   19.3314   65.0966   45.8940 N   0  0  0  0  0  0  0  0  0  0  0  0
   18.8904   63.1696   47.3540 C   0  0  0  0  0  0  0  0  0  0  0  0
   18.9844   63.9726   48.6720 C   0  0  0  0  0  0  0  0  0  0  0  0
   17.4704   63.2536   46.9390 O   0  0  0  0  0  0  0  0  0  0  0  0
   17.3074   61.0136   46.6860 O   0  0  0  0  0  0  0  0  0  0  0  0
   16.8104   62.1206   46.7220 C   0  0  0  0  0  0  0  0  0  0  0  0
   15.3474   62.3706   46.5340 C   0  0  0  0  0  0  0  0  0  0  0  0
   14.8774   63.6166   46.6950 N   0  0  0  0  0  0  0  0  0  0  0  0
   14.5524   61.2526   46.1800 C   0  0  0  0  0  0  0  0  0  0  0  0
   13.5354   63.7976   46.4810 C   0  0  0  0  0  0  0  0  0  0  0  0
   13.2344   61.4436   45.9790 C   0  0  0  0  0  0  0  0  0  0  0  0
   13.0974   65.2166   46.5010 C   0  0  0  0  0  0  0  0  0  0  0  0
   12.6684   62.7556   46.1070 C   0  0  0  0  0  0  0  0  0  0  0  0
   13.2394   65.7826   45.2100 O   0  0  0  0  0  0  0  0  0  0  0  0
   11.5674   65.3646   46.8780 C   0  0  0  0  0  0  0  0  0  0  0  0
   12.3294   60.2186   45.6350 C   0  0  0  0  0  0  0  0  0  0  0  0
   13.0274   59.2186   45.0900 O   0  0  0  0  0  0  0  0  0  0  0  0
   11.2714   63.1276   45.8620 C   0  0  0  0  0  0  0  0  0  0  0  0
   11.5574   59.7836   46.8720 C   0  0  0  0  0  0  0  0  0  0  0  0
   10.7624   64.2656   46.1990 C   0  0  0  0  0  0  0  0  0  0  0  0
   22.2814   58.2946   44.7530 C   0  0  0  0  0  0  0  0  0  0  0  0
   21.8924   59.3986   44.2260 N   0  0  0  0  0  0  0  0  0  0  0  0
   21.4874   57.0836   44.9980 C   0  0  0  0  0  0  0  0  0  0  0  0
   20.4934   59.5296   43.7790 C   0  0  0  0  0  0  0  0  0  0  0  0
   19.5144   58.5586   44.5410 C   0  0  0  0  0  0  0  0  0  0  0  0
   20.1064   57.1446   44.3580 C   0  0  0  0  0  0  0  0  0  0  0  0
   19.5994   58.9806   45.9770 N   0  0  0  0  0  0  0  0  0  0  0  0
   23.7334   58.2666   45.2160 C   0  0  0  0  0  0  0  0  0  0  0  0
   24.2744   57.1876   45.6990 N   0  0  0  0  0  0  0  0  0  0  0  0
   24.7224   59.5806   45.0850 S   0  0  0  0  0  0  0  0  0  0  0  0
   25.5484   57.3596   46.0290 C   0  0  0  0  0  0  0  0  0  0  0  0
   26.0684   58.7336   45.6680 C   0  0  0  0  0  0  0  0  0  0  0  0
   26.4234   56.3836   46.6340 C   0  0  0  0  0  0  0  0  0  0  0  0
   27.4254   56.4786   47.0010 O   0  0  0  0  0  0  0  0  0  0  0  0
  1  2  1  0
  1 47  1  0
  2  3  1  0
  2  5  1  0
  3  4  2  0
  3 52  1  0
  5  6  1  0
  5  7  1  0
  8  9  1  0
  8 95  1  0
  9 10  1  0
  9 12  1  0
 10 11  2  0
 10 16  1  0
 12 13  1  0
 12 14  1  0
 13 15  1  0
 16 17  1  0
 17 18  1  0
 17 20  1  0
 18 19  2  0
 18 21  1  0
 21 22  1  0
 22 23  2  0
 22 24  1  0
 24 25  2  0
 24 26  1  0
 26 27  1  0
 27 28  1  0
 27 30  1  0
 28 29  2  0
 28107  1  0
 31 32  1  0
 31113  1  0
 32 33  2  0
 32 34  1  0
 34 35  2  0
 34 36  1  0
 36 37  1  0
 37 38  2  0
 37 39  1  0
 39 40  1  0
 39 41  2  0
 42 43  2  0
 42 44  1  0
 42105  1  0
 43 45  1  0
 44 46  1  0
 45 46  2  0
 45 47  1  0
 47 48  2  0
 49 50  1  0
 49 51  2  0
 51 52  1  0
 51 53  1  0
 53 54  1  0
 53 59  2  0
 54 55  1  0
 55 56  1  0
 56 58  1  0
 56 59  1  0
 57 58  2  0
 58 61  1  0
 60 61  1  0
 60 62  1  0
 60 68  1  0
 62 63  1  0
 62 64  1  0
 62 65  1  0
 65 66  1  0
 65 67  1  0
 68 69  2  0
 68 70  1  0
 69 71  1  0
 70 72  1  0
 71 72  2  0
 71 73  1  0
 73 74  2  0
 73 81  1  0
 75 76  1  0
 75 77  2  0
 75104  1  0
 76 78  2  0
 77 79  1  0
 78 79  1  0
 78 80  1  0
 80 81  1  0
 80 82  1  0
 82 83  1  0
 82 84  1  0
 84 86  1  0
 85 86  2  0
 86 87  1  0
 87 88  2  0
 87 89  1  0
 88 90  1  0
 89 91  2  0
 90 92  1  0
 90 93  2  0
 91 93  1  0
 91 96  1  0
 92 94  1  0
 92 95  1  0
 93 98  1  0
 95100  1  0
 96 97  1  0
 96 99  1  0
 98100  2  0
101102  2  0
101103  1  0
101108  1  0
102104  1  0
103106  1  0
104105  1  0
105106  1  0
105107  1  0
108109  2  0
108110  1  0
109111  1  0
110112  1  0
111112  2  0
111113  1  0
113114  2  0
M  END
>  <s_m_entry_id>  (5) 
1062

>  <s_m_entry_name>  (5) 
1e9w.1

>  <s_pdb_PDB_TITLE>  (5) 
STRUCTURE OF THE MACROCYCLE THIOSTREPTON SOLVED USING THE ANOMALOUS DISPERSIVE CONTRIBUTION FROM SULFUR

>  <s_m_Source_Path>  (5) 
/nfs/zone2/sindhikara/master/src/validation_scripts/tests/prime/macrocycle/BMS208

>  <s_m_Source_File>  (5) 
208refs.maegz

>  <i_m_Source_File_Index>  (5) 
152

>  <s_pdb_PDB_ID>  (5) 
1E9W

>  <r_pdb_PDB_R>  (5) 
0.1124

>  <r_pdb_PDB_Rfree>  (5) 
0.1423

>  <r_pdb_PDB_RESOLUTION>  (5) 
1.02

>  <s_m_Molecular_formula>  (5) 
C72H86N19O18S5

>  <r_m_Molecular_weight>  (5) 
1665.92472

>  <i_m_Number_of_heavy_atoms>  (5) 
114

>  <i_m_Number_of_atoms>  (5) 
200

>  <s_user_Group>  (5) 
Example PDB

>  <s_user_Preparation>  (5) 
reference

>  <s_user_Primary_PMID>  (5) 
11320328                                                     

>  <s_user_Primary_DOI>  (5) 
10.1107/S0907444901003134     

>  <s_user_Unique_SMILES>  (5) 
[C@@]123c4nc(cs4)C(=O)N[C@@H]([C@@H](C)O)C(=O)NC(=C\C)/C5=N[C@H](CS5)C(=O)N[C@@H]([C@](C)(O)[C@@H](C)O)c6nc(cs6)C(=O)N[C@H](c7nc(cs7)[C@H]1N=C(CC2)c(n8)scc8C(=O)NC(=C)C(=O)NC(=C)C(=O)N)[C@@H](C)OC(=O)c9cc([C@H](C)O)c1c(n9)[C@@H](O)[C@@H](C=C1)N[C@@H]([C@@H](C)CC)C(=O)N[C@@H](C)C(=O)NC(=C)C(=O)N[C@@H](C)C(=O)N3

>  <s_user_Source>  (5) 
PDB

>  <s_user_InChI1S_Key>  (5) 
InChIKey=NSFFHOGKXHRQEW-AIHSUZKVSA-N

>  <s_user_Sample>  (5) 
TEST

>  <s_user_Name>  (5) 
THIOSTREPTON

>  <s_m_subgroup_title>  (5) 
208refs

>  <s_m_subgroupid>  (5) 
208refs

>  <b_m_subgroup_collapsed>  (5) 
0

$$$$
1EHL
     RDKit          3D

 37 41  0  0  1  0  0  0  0  0999 V2000
   -2.8690   61.3500   12.3330 O   0  0  0  0  0  0  0  0  0  0  0  0
   -1.7040   61.6110   11.5670 C   0  0  0  0  0  0  0  0  0  0  0  0
   -0.4720   61.0290   12.2200 C   0  0  0  0  0  0  0  0  0  0  0  0
   -0.8420   60.6180   13.5840 O   0  0  0  0  0  0  0  0  0  0  0  0
    0.0620   59.7550   11.6060 C   0  0  0  0  0  0  0  0  0  0  0  0
    0.9370   59.9620   10.5000 O   0  0  0  0  0  0  0  0  0  0  0  0
    0.7210   59.0330   12.7610 C   0  0  0  0  0  0  0  0  0  0  0  0
    0.0100   59.5520   14.0160 C   0  0  0  0  0  0  0  0  0  0  0  0
   -0.7610   58.3710   14.6060 N   0  0  0  0  0  0  0  0  0  0  0  0
   -0.3690   57.8200   15.6830 C   0  0  0  0  0  0  0  0  0  0  0  0
    0.6600   58.1540   16.2180 O   0  0  0  0  0  0  0  0  0  0  0  0
   -1.1100   56.7820   16.2650 N   0  0  0  0  0  0  0  0  0  0  0  0
   -2.3270   56.2950   15.7410 C   0  0  0  0  0  0  0  0  0  0  0  0
   -2.7810   55.2290   16.1040 O   0  0  0  0  0  0  0  0  0  0  0  0
   -3.0040   57.1700   14.7090 C   0  0  0  0  0  0  0  0  0  0  0  0
   -3.7900   58.2780   15.4160 C   0  0  0  0  0  0  0  0  0  0  0  0
   -3.8780   56.3780   13.9540 O   0  0  0  0  0  0  0  0  0  0  0  0
   -1.9170   57.8290   13.7440 C   0  0  0  0  0  0  0  0  0  0  0  0
    0.4520   59.5700    9.0400 P   0  0  0  0  0  0  0  0  0  0  0  0
    1.1670   60.4270    8.0540 O   0  0  0  0  0  0  0  0  0  0  0  0
   -1.0150   59.6040    9.1520 O   0  0  0  0  0  0  0  0  0  0  0  0
    0.7610   58.0150    8.9320 O   0  0  0  0  0  0  0  0  0  0  0  0
    2.0590   57.5030    8.8360 C   0  0  0  0  0  0  0  0  0  0  0  0
    1.9680   56.0240    8.5560 C   0  0  0  0  0  0  0  0  0  0  0  0
    1.9490   55.1640    9.7630 O   0  0  0  0  0  0  0  0  0  0  0  0
    0.8020   55.5730    7.6750 C   0  0  0  0  0  0  0  0  0  0  0  0
    1.2170   54.9350    6.4800 O   0  0  0  0  0  0  0  0  0  0  0  0
    0.0080   54.6130    8.5460 C   0  0  0  0  0  0  0  0  0  0  0  0
    0.7090   54.4780    9.8940 C   0  0  0  0  0  0  0  0  0  0  0  0
   -0.0300   55.2860   10.9150 N   0  0  0  0  0  0  0  0  0  0  0  0
    0.3750   55.2660   12.2030 C   0  0  0  0  0  0  0  0  0  0  0  0
    1.3470   54.5390   12.5720 O   0  0  0  0  0  0  0  0  0  0  0  0
   -0.2880   56.0970   13.1160 N   0  0  0  0  0  0  0  0  0  0  0  0
   -1.3080   56.8790   12.6720 C   0  0  0  0  0  0  0  0  0  0  0  0
   -1.7510   56.8830   11.3630 C   0  0  0  0  0  0  0  0  0  0  0  0
   -2.8600   57.7260   10.8360 C   0  0  0  0  0  0  0  0  0  0  0  0
   -1.0680   56.0640   10.5000 C   0  0  0  0  0  0  0  0  0  0  0  0
  1  2  1  0
  2  3  1  0
  3  4  1  0
  3  5  1  0
  4  8  1  0
  5  6  1  0
  5  7  1  0
  6 19  1  0
  7  8  1  0
  8  9  1  0
  9 10  1  0
  9 18  1  0
 10 11  2  0
 10 12  1  0
 12 13  1  0
 13 14  2  0
 13 15  1  0
 15 16  1  0
 15 17  1  0
 15 18  1  0
 18 34  1  0
 19 20  2  0
 19 21  1  0
 19 22  1  0
 22 23  1  0
 23 24  1  0
 24 25  1  0
 24 26  1  0
 25 29  1  0
 26 27  1  0
 26 28  1  0
 28 29  1  0
 29 30  1  0
 30 31  1  0
 30 37  1  0
 31 32  2  0
 31 33  1  0
 33 34  2  0
 34 35  1  0
 35 36  1  0
 35 37  2  0
M  CHG  1  21  -1
M  END
>  <s_m_entry_id>  (6) 
1063

>  <s_m_entry_name>  (6) 
1ehl.1

>  <s_pdb_PDB_TITLE>  (6) 
64M-2 ANTIBODY FAB COMPLEXED WITH D(5HT)(6-4)T

>  <s_m_Source_Path>  (6) 
/nfs/zone2/sindhikara/master/src/validation_scripts/tests/prime/macrocycle/BMS208

>  <s_m_Source_File>  (6) 
208refs.maegz

>  <i_m_Source_File_Index>  (6) 
153

>  <s_pdb_PDB_ID>  (6) 
1EHL

>  <r_pdb_PDB_R>  (6) 
0.192

>  <r_pdb_PDB_Rfree>  (6) 
0.279

>  <r_pdb_PDB_RESOLUTION>  (6) 
2.4

>  <s_m_Molecular_formula>  (6) 
C20H26N4O12P1

>  <r_m_Molecular_weight>  (6) 
545.42362

>  <i_m_Number_of_heavy_atoms>  (6) 
37

>  <i_m_Number_of_atoms>  (6) 
63

>  <s_user_Group>  (6) 
Example PDB

>  <s_user_Preparation>  (6) 
reference

>  <s_user_Primary_PMID>  (6) 
10835279                                                     

>  <s_user_Primary_DOI>  (6) 
10.1006/JMBI.2000.3772     

>  <s_user_Unique_SMILES>  (6) 
OC[C@H]([C@H]12)O[C@H](C1)N3[C@H]([C@@](C)(O)C(=O)NC3=O)c4c(C)cn(c(n4)=O)[C@H]5C[C@H](O)[C@H](O5)COP([O-])(=O)O2

>  <s_user_Source>  (6) 
PDB

>  <s_user_InChI1S_Key>  (6) 
InChIKey=PRFQJBLUTUYASX-IWBSTULPSA-N

>  <s_user_Sample>  (6) 
TRAIN

>  <s_user_Name>  (6) 
D(5HT)(6-4)T

>  <s_user_Microstate_Comment>  (6) 
amide N should be NH

>  <s_m_subgroup_title>  (6) 
208refs

>  <s_m_subgroupid>  (6) 
208refs

>  <b_m_subgroup_collapsed>  (6) 
0

$$$$
1ESV
     RDKit          3D

 29 31  0  0  1  0  0  0  0  0999 V2000
   21.5951   62.2889   48.8797 S   0  0  0  0  0  0  0  0  0  0  0  0
   21.5081   60.8609   46.7837 N   0  0  0  0  0  0  0  0  0  0  0  0
   19.9051   62.4979   42.5837 O   0  0  0  0  0  0  0  0  0  0  0  0
   17.9351   62.1859   43.6597 O   0  0  0  0  0  0  0  0  0  0  0  0
   17.8871   60.5279   46.8607 O   0  0  0  0  0  0  0  0  0  0  0  0
   19.0391   62.5089   46.5327 O   0  0  0  0  0  0  0  0  0  0  0  0
   23.4651   62.0489   47.0307 O   0  0  0  0  0  0  0  0  0  0  0  0
   18.7811   62.8919   42.8857 C   0  0  0  0  0  0  0  0  0  0  0  0
   18.1991   64.1829   42.5027 C   0  0  0  0  0  0  0  0  0  0  0  0
   17.2041   64.8979   43.0417 C   0  0  0  0  0  0  0  0  0  0  0  0
   16.4551   64.4779   44.2697 C   0  0  0  0  0  0  0  0  0  0  0  0
   15.0031   64.7359   44.0437 C   0  0  0  0  0  0  0  0  0  0  0  0
   14.1091   64.0949   45.0467 C   0  0  0  0  0  0  0  0  0  0  0  0
   14.3711   63.3909   46.1537 C   0  0  0  0  0  0  0  0  0  0  0  0
   13.3241   62.8409   46.9577 C   0  0  0  0  0  0  0  0  0  0  0  0
   13.5941   62.1819   48.1027 C   0  0  0  0  0  0  0  0  0  0  0  0
   14.9981   61.8669   48.5327 C   0  0  0  0  0  0  0  0  0  0  0  0
   15.4421   60.4829   48.1437 C   0  0  0  0  0  0  0  0  0  0  0  0
   15.5311   60.2599   46.6547 C   0  0  0  0  0  0  0  0  0  0  0  0
   16.7361   60.8529   45.9817 C   0  0  0  0  0  0  0  0  0  0  0  0
   16.9641   60.2759   44.6077 C   0  0  0  0  0  0  0  0  0  0  0  0
   18.2681   60.8009   44.0537 C   0  0  0  0  0  0  0  0  0  0  0  0
   19.4421   60.7409   44.9937 C   0  0  0  0  0  0  0  0  0  0  0  0
   19.1101   61.0899   46.4407 C   0  0  0  0  0  0  0  0  0  0  0  0
   20.1591   60.5619   47.3927 C   0  0  0  0  0  0  0  0  0  0  0  0
   20.1901   61.0969   48.7997 C   0  0  0  0  0  0  0  0  0  0  0  0
   22.3551   61.6889   47.3667 C   0  0  0  0  0  0  0  0  0  0  0  0
   16.8061   66.2299   42.3567 C   0  0  0  0  0  0  0  0  0  0  0  0
   15.1491   62.1599   50.1027 C   0  0  0  0  0  0  0  0  0  0  0  0
  1 26  1  0
  1 27  1  0
  2 25  1  0
  2 27  1  0
  3  8  2  0
  4  8  1  0
  4 22  1  0
  5 20  1  0
  5 24  1  0
  6 24  1  0
  7 27  2  0
  8  9  1  0
  9 10  2  0
 10 11  1  0
 10 28  1  0
 11 12  1  0
 12 13  1  0
 13 14  2  0
 14 15  1  0
 15 16  2  0
 16 17  1  0
 17 18  1  0
 17 29  1  0
 18 19  1  0
 19 20  1  0
 20 21  1  0
 21 22  1  0
 22 23  1  0
 23 24  1  0
 24 25  1  0
 25 26  1  0
M  END
>  <s_m_entry_id>  (7) 
1064

>  <s_m_entry_name>  (7) 
1esv.1

>  <s_pdb_PDB_TITLE>  (7) 
COMPLEX BETWEEN LATRUNCULIN A:RABBIT MUSCLE ALPHA ACTIN:HUMAN GELSOLIN DOMAIN 1

>  <s_m_Source_Path>  (7) 
/nfs/zone2/sindhikara/master/src/validation_scripts/tests/prime/macrocycle/BMS208

>  <s_m_Source_File>  (7) 
208refs.maegz

>  <i_m_Source_File_Index>  (7) 
154

>  <s_pdb_PDB_ID>  (7) 
1ESV

>  <r_pdb_PDB_R>  (7) 
0.228

>  <r_pdb_PDB_Rfree>  (7) 
0.286

>  <r_pdb_PDB_RESOLUTION>  (7) 
2

>  <s_m_Molecular_formula>  (7) 
C22H31N1O5S1

>  <r_m_Molecular_weight>  (7) 
421.56007

>  <i_m_Number_of_heavy_atoms>  (7) 
29

>  <i_m_Number_of_atoms>  (7) 
60

>  <s_user_Group>  (7) 
Example PDB

>  <s_user_Preparation>  (7) 
reference

>  <s_user_Primary_PMID>  (7) 
10854330                                                     

>  <s_user_Primary_DOI>  (7) 
10.1038/35014075      

>  <s_user_Unique_SMILES>  (7) 
O=C(O1)\C=C(\C)CC/C=C/C=C\[C@@H](C)CC[C@H](C2)O[C@](O)(C[C@H]12)[C@H](CS3)NC3=O

>  <s_user_Source>  (7) 
PDB

>  <s_user_InChI1S_Key>  (7) 
InChIKey=DDVBPZROPPMBLW-IZGXTMSKSA-N

>  <s_user_Sample>  (7) 
TEST

>  <s_user_Name>  (7) 
LATRUNCULIN A

>  <s_m_subgroup_title>  (7) 
208refs

>  <s_m_subgroupid>  (7) 
208refs

>  <b_m_subgroup_collapsed>  (7) 
0

$$$$
1FKD
     RDKit          3D

 57 60  0  0  1  0  0  0  0  0999 V2000
   14.5693   64.0339   47.6081 C   0  0  0  0  0  0  0  0  0  0  0  0
   13.2133   63.3869   47.4341 C   0  0  0  0  0  0  0  0  0  0  0  0
   12.5433   63.3229   48.8441 C   0  0  0  0  0  0  0  0  0  0  0  0
   13.0713   62.1349   49.6621 C   0  0  0  0  0  0  0  0  0  0  0  0
   12.9483   60.7829   48.9751 C   0  0  0  0  0  0  0  0  0  0  0  0
   13.6383   60.8739   47.6231 C   0  0  0  0  0  0  0  0  0  0  0  0
   12.6233   61.9539   45.5671 C   0  0  0  0  0  0  0  0  0  0  0  0
   12.4253   60.6459   44.8881 C   0  0  0  0  0  0  0  0  0  0  0  0
   13.5813   60.1459   43.9281 C   0  0  0  0  0  0  0  0  0  0  0  0
   14.2793   61.2949   43.2631 C   0  0  0  0  0  0  0  0  0  0  0  0
   15.6113   60.8199   42.6741 C   0  0  0  0  0  0  0  0  0  0  0  0
   16.5063   60.0869   43.7641 C   0  0  0  0  0  0  0  0  0  0  0  0
   15.6853   58.9579   44.4611 C   0  0  0  0  0  0  0  0  0  0  0  0
   16.2383   58.1699   45.6511 C   0  0  0  0  0  0  0  0  0  0  0  0
   17.1343   58.9979   46.5831 C   0  0  0  0  0  0  0  0  0  0  0  0
   17.5503   58.2719   47.8931 C   0  0  0  0  0  0  0  0  0  0  0  0
   18.9723   57.5919   47.6331 C   0  0  0  0  0  0  0  0  0  0  0  0
   20.0373   58.6539   47.8151 C   0  0  0  0  0  0  0  0  0  0  0  0
   20.5733   59.2199   46.7101 C   0  0  0  0  0  0  0  0  0  0  0  0
   21.5623   60.3399   46.7601 C   0  0  0  0  0  0  0  0  0  0  0  0
   20.8193   61.6379   46.4691 C   0  0  0  0  0  0  0  0  0  0  0  0
   20.4713   62.4759   47.6781 C   0  0  0  0  0  0  0  0  0  0  0  0
   19.3673   63.4999   47.3701 C   0  0  0  0  0  0  0  0  0  0  0  0
   17.9763   62.8539   47.3381 C   0  0  0  0  0  0  0  0  0  0  0  0
   16.9113   64.0239   47.0401 C   0  0  0  0  0  0  0  0  0  0  0  0
   17.1863   64.7979   45.7661 C   0  0  0  0  0  0  0  0  0  0  0  0
   17.5423   66.0829   45.9971 C   0  0  0  0  0  0  0  0  0  0  0  0
   17.9823   67.0179   44.8991 C   0  0  0  0  0  0  0  0  0  0  0  0
   17.1813   68.3389   45.0171 C   0  0  0  0  0  0  0  0  0  0  0  0
   17.8363   69.4709   44.2391 C   0  0  0  0  0  0  0  0  0  0  0  0
   19.2623   69.6289   44.6811 C   0  0  0  0  0  0  0  0  0  0  0  0
   20.0783   68.3709   44.3681 C   0  0  0  0  0  0  0  0  0  0  0  0
   19.4453   67.3279   45.3101 C   0  0  0  0  0  0  0  0  0  0  0  0
   13.3753   61.8379   42.1291 C   0  0  0  0  0  0  0  0  0  0  0  0
   16.5463   57.1949   48.2361 C   0  0  0  0  0  0  0  0  0  0  0  0
   20.4343   59.1039   49.2471 C   0  0  0  0  0  0  0  0  0  0  0  0
   22.6143   60.1189   45.5751 C   0  0  0  0  0  0  0  0  0  0  0  0
   23.7073   61.1519   45.4811 C   0  0  0  0  0  0  0  0  0  0  0  0
   17.5003   62.1679   48.7121 C   0  0  0  0  0  0  0  0  0  0  0  0
   17.1483   64.0609   44.4701 C   0  0  0  0  0  0  0  0  0  0  0  0
   18.6913   60.6139   43.0391 C   0  0  0  0  0  0  0  0  0  0  0  0
   16.3843   55.9469   44.5971 C   0  0  0  0  0  0  0  0  0  0  0  0
   15.9663   70.7429   43.5701 C   0  0  0  0  0  0  0  0  0  0  0  0
   13.1213   62.0779   46.8221 N   0  0  0  0  0  0  0  0  0  0  0  0
   15.5693   63.3369   47.0011 O   0  0  0  0  0  0  0  0  0  0  0  0
   14.7983   64.9939   48.2921 O   0  0  0  0  0  0  0  0  0  0  0  0
   12.2063   62.9789   44.9061 O   0  0  0  0  0  0  0  0  0  0  0  0
   11.4423   59.9289   45.1061 O   0  0  0  0  0  0  0  0  0  0  0  0
   14.4443   59.6049   44.9731 O   0  0  0  0  0  0  0  0  0  0  0  0
   13.1923   59.0829   43.1531 O   0  0  0  0  0  0  0  0  0  0  0  0
   17.7283   59.5159   43.1851 O   0  0  0  0  0  0  0  0  0  0  0  0
   17.1043   57.1219   45.0281 O   0  0  0  0  0  0  0  0  0  0  0  0
   20.4923   62.0709   45.3261 O   0  0  0  0  0  0  0  0  0  0  0  0
   19.5023   64.4599   48.4571 O   0  0  0  0  0  0  0  0  0  0  0  0
   17.0753   70.7119   44.4601 O   0  0  0  0  0  0  0  0  0  0  0  0
   19.7513   70.7419   43.9671 O   0  0  0  0  0  0  0  0  0  0  0  0
   19.1403   56.6209   48.6801 O   0  0  0  0  0  0  0  0  0  0  0  0
  1  2  1  0
  1 45  1  0
  1 46  2  0
  2  3  1  0
  2 44  1  0
  3  4  1  0
  4  5  1  0
  5  6  1  0
  6 44  1  0
  7  8  1  0
  7 44  1  0
  7 47  2  0
  8  9  1  0
  8 48  2  0
  9 10  1  0
  9 49  1  0
  9 50  1  0
 10 11  1  0
 10 34  1  0
 11 12  1  0
 12 13  1  0
 12 51  1  0
 13 14  1  0
 13 49  1  0
 14 15  1  0
 14 52  1  0
 15 16  1  0
 16 17  1  0
 16 35  1  0
 17 18  1  0
 17 57  1  0
 18 19  2  0
 18 36  1  0
 19 20  1  0
 20 21  1  0
 20 37  1  0
 21 22  1  0
 21 53  2  0
 22 23  1  0
 23 24  1  0
 23 54  1  0
 24 25  1  0
 24 39  1  0
 25 26  1  0
 25 45  1  0
 26 27  2  0
 26 40  1  0
 27 28  1  0
 28 29  1  0
 28 33  1  0
 29 30  1  0
 30 31  1  0
 30 55  1  0
 31 32  1  0
 31 56  1  0
 32 33  1  0
 37 38  1  0
 41 51  1  0
 42 52  1  0
 43 55  1  0
M  END
>  <s_m_entry_id>  (8) 
1065

>  <s_m_entry_name>  (8) 
1fkd.1

>  <s_pdb_PDB_TITLE>  (8) 
FK-506 BINDING PROTEIN: THREE-DIMENSIONAL STRUCTURE OF THE COMPLEX WITH THE ANTAGONIST L-685,818

>  <s_m_Source_Path>  (8) 
/nfs/zone2/sindhikara/master/src/validation_scripts/tests/prime/macrocycle/BMS208

>  <s_m_Source_File>  (8) 
208refs.maegz

>  <i_m_Source_File_Index>  (8) 
155

>  <s_pdb_PDB_ID>  (8) 
1FKD

>  <r_pdb_PDB_R>  (8) 
0.18

>  <r_pdb_PDB_RESOLUTION>  (8) 
1.72

>  <s_m_Molecular_formula>  (8) 
C43H69N1O13

>  <r_m_Molecular_weight>  (8) 
808.02828

>  <i_m_Number_of_heavy_atoms>  (8) 
57

>  <i_m_Number_of_atoms>  (8) 
126

>  <s_user_Group>  (8) 
Example PDB

>  <s_user_Preparation>  (8) 
reference

>  <s_user_Primary_PMID>  (8) 
7684380                                                      

>  <s_user_Unique_SMILES>  (8) 
C1C[C@@H](O)[C@H](OC)C[C@@H]1/C=C(\C)[C@@H](OC(=O)[C@H]2N(C(=O)C3=O)CCCC2)[C@H](C)[C@@H](O)CC(=O)[C@H](CC)/C=C(\C)[C@@H](O)[C@H](C)C[C@H](OC)[C@@H](O4)[C@@H](OC)C[C@@H](C)[C@]34O

>  <s_user_Source>  (8) 
PDB

>  <s_user_InChI1S_Key>  (8) 
InChIKey=NOQNPBXNHMZMTC-UGTSZWOVSA-N

>  <s_user_Sample>  (8) 
TEST

>  <s_user_Name>  (8) 
tacrolimus-like

>  <s_m_subgroup_title>  (8) 
208refs

>  <s_m_subgroupid>  (8) 
208refs

>  <b_m_subgroup_collapsed>  (8) 
0

$$$$
1FKI
     RDKit          3D

 31 32  0  0  1  0  0  0  0  0999 V2000
    8.2000  -38.3720    0.8770 N   0  0  0  0  0  0  0  0  0  0  0  0
    8.7830  -39.3840    1.5490 C   0  0  0  0  0  0  0  0  0  0  0  0
    9.4950  -39.1460    2.5420 O   0  0  0  0  0  0  0  0  0  0  0  0
    8.5570  -40.8410    1.1260 C   0  0  0  0  0  0  0  0  0  0  0  0
    9.0030  -41.2190    0.0390 O   0  0  0  0  0  0  0  0  0  0  0  0
    7.7510  -41.8170    2.0150 C   0  0  0  0  0  0  0  0  0  0  0  0
    7.0980  -42.9360    1.2220 C   0  0  0  0  0  0  0  0  0  0  0  0
    6.3130  -42.2040    0.2750 O   0  0  0  0  0  0  0  0  0  0  0  0
    5.4490  -42.8090   -0.5010 C   0  0  0  0  0  0  0  0  0  0  0  0
    5.3030  -44.0240   -0.4610 O   0  0  0  0  0  0  0  0  0  0  0  0
    4.7200  -41.9230   -1.4770 C   0  0  0  0  0  0  0  0  0  0  0  0
    3.4010  -42.4600   -1.9570 C   0  0  0  0  0  0  0  0  0  0  0  0
    2.8310  -41.5560   -3.0580 C   0  0  0  0  0  0  0  0  0  0  0  0
    2.1900  -40.2620   -2.5340 C   0  0  0  0  0  0  0  0  0  0  0  0
    1.3740  -40.4380   -1.2610 C   0  0  0  0  0  0  0  0  0  0  0  0
    1.1280  -39.0910   -0.6270 C   0  0  0  0  0  0  0  0  0  0  0  0
    2.3130  -38.6720    0.2170 C   0  0  0  0  0  0  0  0  0  0  0  0
    2.0550  -37.2730    0.7520 C   0  0  0  0  0  0  0  0  0  0  0  0
    3.2960  -36.7250    1.4300 C   0  0  0  0  0  0  0  0  0  0  0  0
    3.6950  -37.5120    2.6810 C   0  0  0  0  0  0  0  0  0  0  0  0
    4.9390  -36.9370    3.3450 C   0  0  0  0  0  0  0  0  0  0  0  0
    6.0730  -37.3520    2.5180 O   0  0  0  0  0  0  0  0  0  0  0  0
    7.0910  -36.5260    2.2580 C   0  0  0  0  0  0  0  0  0  0  0  0
    7.1310  -35.3720    2.6740 O   0  0  0  0  0  0  0  0  0  0  0  0
    8.2580  -37.0160    1.4190 C   0  0  0  0  0  0  0  0  0  0  0  0
    8.4830  -36.0780    0.2490 C   0  0  0  0  0  0  0  0  0  0  0  0
    7.4650  -36.2330   -0.8490 C   0  0  0  0  0  0  0  0  0  0  0  0
    7.3910  -37.6910   -1.2560 C   0  0  0  0  0  0  0  0  0  0  0  0
    7.0810  -38.5700   -0.0560 C   0  0  0  0  0  0  0  0  0  0  0  0
    6.5810  -41.1270    2.7740 C   0  0  0  0  0  0  0  0  0  0  0  0
    8.6630  -42.4620    3.0960 C   0  0  0  0  0  0  0  0  0  0  0  0
  1  2  1  0
  1 25  1  0
  1 29  1  0
  2  3  2  0
  2  4  1  0
  4  5  2  0
  4  6  1  0
  6  7  1  0
  6 30  1  0
  6 31  1  0
  7  8  1  0
  8  9  1  0
  9 10  2  0
  9 11  1  0
 11 12  1  0
 12 13  1  0
 13 14  1  0
 14 15  1  0
 15 16  1  0
 16 17  1  0
 17 18  1  0
 18 19  1  0
 19 20  1  0
 20 21  1  0
 21 22  1  0
 22 23  1  0
 23 24  2  0
 23 25  1  0
 25 26  1  0
 26 27  1  0
 27 28  1  0
 28 29  1  0
M  END
>  <s_m_entry_id>  (9) 
1066

>  <s_m_entry_name>  (9) 
1fki.1

>  <s_pdb_PDB_TITLE>  (9) 
DESIGN, SYNTHESIS, AND KINETIC EVALUATION OF HIGH-AFFINITY FKBP LIGANDS, AND THE X-RAY CRYSTAL STRUCTURES OF THEIR COMPLEXES WITH FKBP12

>  <s_m_Source_Path>  (9) 
/nfs/zone2/sindhikara/master/src/validation_scripts/tests/prime/macrocycle/BMS208

>  <s_m_Source_File>  (9) 
208refs.maegz

>  <i_m_Source_File_Index>  (9) 
156

>  <s_pdb_PDB_ID>  (9) 
1FKI

>  <r_pdb_PDB_R>  (9) 
0.176

>  <r_pdb_PDB_RESOLUTION>  (9) 
2.2

>  <s_m_Molecular_formula>  (9) 
C24H39N1O6

>  <r_m_Molecular_weight>  (9) 
437.58153

>  <i_m_Number_of_heavy_atoms>  (9) 
31

>  <i_m_Number_of_atoms>  (9) 
70

>  <s_user_Group>  (9) 
Example PDB

>  <s_user_Preparation>  (9) 
reference

>  <s_user_Unique_SMILES>  (9) 
C1CCCN([C@@H]12)C(=O)C(=O)C(C)(C)COC(=O)CCCCCCCCCCCOC2=O

>  <s_user_Source>  (9) 
PDB

>  <s_user_InChI1S_Key>  (9) 
InChIKey=VUCSBBBCFXBFFY-IBGZPJMESA-N

>  <s_user_Sample>  (9) 
TRAIN

>  <s_user_Name>  (9) 
tacrolimus-like

>  <s_m_subgroup_title>  (9) 
208refs

>  <s_m_subgroupid>  (9) 
208refs

>  <b_m_subgroup_collapsed>  (9) 
0

$$$$
1FKJ
     RDKit          3D

 57 60  0  0  1  0  0  0  0  0999 V2000
   19.9490   28.5680   21.8570 C   0  0  0  0  0  0  0  0  0  0  0  0
   18.5680   29.2180   21.9700 C   0  0  0  0  0  0  0  0  0  0  0  0
   17.9640   29.3850   20.5740 C   0  0  0  0  0  0  0  0  0  0  0  0
   18.6010   30.5210   19.7410 C   0  0  0  0  0  0  0  0  0  0  0  0
   18.4150   31.8300   20.4740 C   0  0  0  0  0  0  0  0  0  0  0  0
   19.0350   31.6930   21.8620 C   0  0  0  0  0  0  0  0  0  0  0  0
   17.8510   30.6210   23.8590 C   0  0  0  0  0  0  0  0  0  0  0  0
   17.6760   31.8340   24.5460 C   0  0  0  0  0  0  0  0  0  0  0  0
   18.8010   32.3560   25.5030 C   0  0  0  0  0  0  0  0  0  0  0  0
   19.4560   31.2560   26.3820 C   0  0  0  0  0  0  0  0  0  0  0  0
   20.8150   31.7500   26.9900 C   0  0  0  0  0  0  0  0  0  0  0  0
   21.7170   32.4490   25.9220 C   0  0  0  0  0  0  0  0  0  0  0  0
   20.9200   33.5710   25.2370 C   0  0  0  0  0  0  0  0  0  0  0  0
   21.5930   34.5020   24.1650 C   0  0  0  0  0  0  0  0  0  0  0  0
   22.3720   33.7450   23.0450 C   0  0  0  0  0  0  0  0  0  0  0  0
   22.9530   34.5470   21.8340 C   0  0  0  0  0  0  0  0  0  0  0  0
   24.4210   35.0990   22.0620 C   0  0  0  0  0  0  0  0  0  0  0  0
   25.4600   33.9540   21.9020 C   0  0  0  0  0  0  0  0  0  0  0  0
   25.9660   33.3520   23.0260 C   0  0  0  0  0  0  0  0  0  0  0  0
   27.0140   32.2090   23.1430 C   0  0  0  0  0  0  0  0  0  0  0  0
   26.2320   30.8580   23.2780 C   0  0  0  0  0  0  0  0  0  0  0  0
   26.0690   30.0360   21.9760 C   0  0  0  0  0  0  0  0  0  0  0  0
   24.8560   29.0920   22.0330 C   0  0  0  0  0  0  0  0  0  0  0  0
   23.4400   29.7780   22.1230 C   0  0  0  0  0  0  0  0  0  0  0  0
   22.3560   28.6810   22.3690 C   0  0  0  0  0  0  0  0  0  0  0  0
   22.5560   27.8570   23.6720 C   0  0  0  0  0  0  0  0  0  0  0  0
   22.7290   26.5200   23.5250 C   0  0  0  0  0  0  0  0  0  0  0  0
   23.3550   25.5680   24.5590 C   0  0  0  0  0  0  0  0  0  0  0  0
   22.5230   24.2530   24.4380 C   0  0  0  0  0  0  0  0  0  0  0  0
   23.1300   23.1360   25.2860 C   0  0  0  0  0  0  0  0  0  0  0  0
   24.6070   22.9410   24.8660 C   0  0  0  0  0  0  0  0  0  0  0  0
   25.4660   24.2210   25.0170 C   0  0  0  0  0  0  0  0  0  0  0  0
   24.8530   25.3700   24.1760 C   0  0  0  0  0  0  0  0  0  0  0  0
   18.4750   30.7070   27.4450 C   0  0  0  0  0  0  0  0  0  0  0  0
   22.0050   35.6680   21.3220 C   0  0  0  0  0  0  0  0  0  0  0  0
   25.9280   33.6840   20.4370 C   0  0  0  0  0  0  0  0  0  0  0  0
   27.9220   32.5140   24.4170 C   0  0  0  0  0  0  0  0  0  0  0  0
   28.8940   31.3770   24.7430 C   0  0  0  0  0  0  0  0  0  0  0  0
   29.7360   30.8260   23.8460 C   0  0  0  0  0  0  0  0  0  0  0  0
   23.0470   30.6030   20.8420 C   0  0  0  0  0  0  0  0  0  0  0  0
   22.4640   28.5370   25.0440 C   0  0  0  0  0  0  0  0  0  0  0  0
   24.0700   32.1360   26.6290 C   0  0  0  0  0  0  0  0  0  0  0  0
   21.8100   36.7650   25.2100 C   0  0  0  0  0  0  0  0  0  0  0  0
   21.4340   21.4470   25.9070 C   0  0  0  0  0  0  0  0  0  0  0  0
   18.4440   30.5440   22.6150 N   0  0  0  0  0  0  0  0  0  0  0  0
   21.0270   29.2950   22.3810 O   0  0  0  0  0  0  0  0  0  0  0  0
   20.1330   27.5380   21.2870 O   0  0  0  0  0  0  0  0  0  0  0  0
   17.4380   29.6180   24.4570 O   0  0  0  0  0  0  0  0  0  0  0  0
   16.7210   32.5660   24.3060 O   0  0  0  0  0  0  0  0  0  0  0  0
   19.7840   32.9460   24.6080 O   0  0  0  0  0  0  0  0  0  0  0  0
   18.2770   33.3910   26.3670 O   0  0  0  0  0  0  0  0  0  0  0  0
   22.9240   33.0190   26.5510 O   0  0  0  0  0  0  0  0  0  0  0  0
   22.4570   35.5050   24.7910 O   0  0  0  0  0  0  0  0  0  0  0  0
   25.9730   30.3640   24.3760 O   0  0  0  0  0  0  0  0  0  0  0  0
   24.9100   28.1630   20.9360 O   0  0  0  0  0  0  0  0  0  0  0  0
   22.3820   21.9370   24.9510 O   0  0  0  0  0  0  0  0  0  0  0  0
   25.1840   21.8630   25.6250 O   0  0  0  0  0  0  0  0  0  0  0  0
  1  2  1  0
  1 46  1  0
  1 47  2  0
  2  3  1  0
  2 45  1  0
  3  4  1  0
  4  5  1  0
  5  6  1  0
  6 45  1  0
  7  8  1  0
  7 45  1  0
  7 48  2  0
  8  9  1  0
  8 49  2  0
  9 10  1  0
  9 50  1  0
  9 51  1  0
 10 11  1  0
 10 34  1  0
 11 12  1  0
 12 13  1  0
 12 52  1  0
 13 14  1  0
 13 50  1  0
 14 15  1  0
 14 53  1  0
 15 16  1  0
 16 17  1  0
 16 35  1  0
 17 18  1  0
 18 19  2  0
 18 36  1  0
 19 20  1  0
 20 21  1  0
 20 37  1  0
 21 22  1  0
 21 54  2  0
 22 23  1  0
 23 24  1  0
 23 55  1  0
 24 25  1  0
 24 40  1  0
 25 26  1  0
 25 46  1  0
 26 27  2  0
 26 41  1  0
 27 28  1  0
 28 29  1  0
 28 33  1  0
 29 30  1  0
 30 31  1  0
 30 56  1  0
 31 32  1  0
 31 57  1  0
 32 33  1  0
 37 38  1  0
 38 39  2  0
 42 52  1  0
 43 53  1  0
 44 56  1  0
M  END
>  <s_m_entry_id>  (10) 
1067

>  <s_m_entry_name>  (10) 
1fkj.1

>  <s_pdb_PDB_TITLE>  (10) 
ATOMIC STRUCTURE OF FKBP12-FK506, AN IMMUNOPHILIN IMMUNOSUPPRESSANT COMPLEX

>  <s_m_Source_Path>  (10) 
/nfs/zone2/sindhikara/master/src/validation_scripts/tests/prime/macrocycle/BMS208

>  <s_m_Source_File>  (10) 
208refs.maegz

>  <i_m_Source_File_Index>  (10) 
157

>  <s_pdb_PDB_ID>  (10) 
1FKJ

>  <r_pdb_PDB_R>  (10) 
0.162

>  <r_pdb_PDB_RESOLUTION>  (10) 
1.7

>  <s_m_Molecular_formula>  (10) 
C44H69N1O12

>  <r_m_Molecular_weight>  (10) 
804.04003

>  <i_m_Number_of_heavy_atoms>  (10) 
57

>  <i_m_Number_of_atoms>  (10) 
126

>  <s_user_Group>  (10) 
Tacrolimus/analog

>  <s_user_Preparation>  (10) 
reference

>  <s_user_Primary_PMID>  (10) 
15299838                                                     

>  <s_user_Primary_DOI>  (10) 
10.1107/S0907444994014514     

>  <s_user_Unique_SMILES>  (10) 
C1C[C@@H](O)[C@H](OC)C[C@@H]1/C=C(\C)[C@@H](OC(=O)[C@H]2N(C(=O)C3=O)CCCC2)[C@H](C)[C@@H](O)CC(=O)[C@H](CC=C)/C=C(\C)C[C@H](C)C[C@H](OC)[C@@H](O4)[C@@H](OC)C[C@@H](C)[C@]34O

>  <s_user_Source>  (10) 
PDB

>  <s_user_InChI1S_Key>  (10) 
InChIKey=QJJXYPPXXYFBGM-LFZNUXCKSA-N

>  <s_user_Sample>  (10) 
TRAIN

>  <s_user_Name>  (10) 
tacrolimus-like

>  <s_user_Microstate_Comment>  (10) 
1fkj and FINWEE10 are conformers

>  <s_m_subgroup_title>  (10) 
208refs

>  <s_m_subgroupid>  (10) 
208refs

>  <b_m_subgroup_collapsed>  (10) 
0

$$$$
1FKL
     RDKit          3D

 65 68  0  0  1  0  0  0  0  0999 V2000
  -18.1700   -8.4900  -12.9290 C   0  0  0  0  0  0  0  0  0  0  0  0
  -18.6280   -9.5340  -13.7620 O   0  0  0  0  0  0  0  0  0  0  0  0
  -17.4180   -8.6870  -12.0230 O   0  0  0  0  0  0  0  0  0  0  0  0
  -18.7340   -7.0900  -13.2370 C   0  0  0  0  0  0  0  0  0  0  0  0
  -19.1880   -6.4310  -11.9080 C   0  0  0  0  0  0  0  0  0  0  0  0
  -20.5850   -6.9650  -11.4420 C   0  0  0  0  0  0  0  0  0  0  0  0
  -21.6150   -6.7670  -12.5910 C   0  0  0  0  0  0  0  0  0  0  0  0
  -21.1690   -7.5650  -13.8190 C   0  0  0  0  0  0  0  0  0  0  0  0
  -19.8340   -7.0740  -14.2680 N   0  0  0  0  0  0  0  0  0  0  0  0
  -19.5340   -6.6230  -15.5260 C   0  0  0  0  0  0  0  0  0  0  0  0
  -18.3700   -6.2820  -15.8110 O   0  0  0  0  0  0  0  0  0  0  0  0
  -20.5170   -6.4230  -16.5440 C   0  0  0  0  0  0  0  0  0  0  0  0
  -21.1600   -5.3710  -16.6420 O   0  0  0  0  0  0  0  0  0  0  0  0
  -20.8610   -7.5910  -17.5280 C   0  0  0  0  0  0  0  0  0  0  0  0
  -21.6710   -8.4930  -16.7530 O   0  0  0  0  0  0  0  0  0  0  0  0
  -21.7130   -7.0990  -18.5610 O   0  0  0  0  0  0  0  0  0  0  0  0
  -19.5720   -8.2900  -18.1540 C   0  0  0  0  0  0  0  0  0  0  0  0
  -19.9900   -9.6360  -18.8240 C   0  0  0  0  0  0  0  0  0  0  0  0
  -20.8330  -10.4800  -17.8240 C   0  0  0  0  0  0  0  0  0  0  0  0
  -22.0980   -9.7380  -17.3210 C   0  0  0  0  0  0  0  0  0  0  0  0
  -22.8780  -10.4260  -16.1630 C   0  0  0  0  0  0  0  0  0  0  0  0
  -23.6370  -11.7010  -16.6130 C   0  0  0  0  0  0  0  0  0  0  0  0
  -24.7050  -11.2990  -17.5140 O   0  0  0  0  0  0  0  0  0  0  0  0
  -24.2030  -12.3740  -15.3430 C   0  0  0  0  0  0  0  0  0  0  0  0
  -23.6310  -13.5440  -14.9330 C   0  0  0  0  0  0  0  0  0  0  0  0
  -24.1600  -14.5460  -13.9750 C   0  0  0  0  0  0  0  0  0  0  0  0
  -23.5590  -15.7230  -13.7290 C   0  0  0  0  0  0  0  0  0  0  0  0
  -23.7340  -16.4670  -12.4720 C   0  0  0  0  0  0  0  0  0  0  0  0
  -23.2140  -17.7010  -12.2790 C   0  0  0  0  0  0  0  0  0  0  0  0
  -23.3880  -18.4910  -10.9700 C   0  0  0  0  0  0  0  0  0  0  0  0
  -21.9730  -18.5180  -10.2930 C   0  0  0  0  0  0  0  0  0  0  0  0
  -21.2650  -17.1310  -10.0070 C   0  0  0  0  0  0  0  0  0  0  0  0
  -19.7530  -17.4030   -9.8800 C   0  0  0  0  0  0  0  0  0  0  0  0
  -19.3140  -17.8340   -8.8290 O   0  0  0  0  0  0  0  0  0  0  0  0
  -18.8520  -17.3640  -11.1400 C   0  0  0  0  0  0  0  0  0  0  0  0
  -17.6710  -18.1810  -10.8780 O   0  0  0  0  0  0  0  0  0  0  0  0
  -18.3610  -15.8930  -11.4410 C   0  0  0  0  0  0  0  0  0  0  0  0
  -18.0260  -15.2450  -10.2250 O   0  0  0  0  0  0  0  0  0  0  0  0
  -19.4470  -15.1250  -12.2010 C   0  0  0  0  0  0  0  0  0  0  0  0
  -20.1350  -14.1000  -11.5810 C   0  0  0  0  0  0  0  0  0  0  0  0
  -21.1560  -13.1040  -12.2080 C   0  0  0  0  0  0  0  0  0  0  0  0
  -20.4290  -11.7510  -12.5110 C   0  0  0  0  0  0  0  0  0  0  0  0
  -20.6530  -10.7370  -11.8740 O   0  0  0  0  0  0  0  0  0  0  0  0
  -19.5020  -11.7380  -13.7330 C   0  0  0  0  0  0  0  0  0  0  0  0
  -18.2360  -10.9140  -13.5070 C   0  0  0  0  0  0  0  0  0  0  0  0
  -17.0460  -11.2430  -14.4990 C   0  0  0  0  0  0  0  0  0  0  0  0
  -16.2460  -12.5490  -14.1960 C   0  0  0  0  0  0  0  0  0  0  0  0
  -15.6360  -12.7040  -12.7650 C   0  0  0  0  0  0  0  0  0  0  0  0
  -14.9480  -14.1010  -12.6180 C   0  0  0  0  0  0  0  0  0  0  0  0
  -14.4570  -14.3250  -11.1670 C   0  0  0  0  0  0  0  0  0  0  0  0
  -13.8630  -15.6650  -11.0680 O   0  0  0  0  0  0  0  0  0  0  0  0
  -13.4320  -13.2090  -10.7490 C   0  0  0  0  0  0  0  0  0  0  0  0
  -13.0360  -13.3810   -9.3780 O   0  0  0  0  0  0  0  0  0  0  0  0
  -14.0180  -11.7660  -10.9160 C   0  0  0  0  0  0  0  0  0  0  0  0
  -14.6960  -11.5130  -12.2840 C   0  0  0  0  0  0  0  0  0  0  0  0
  -18.7620   -7.3700  -19.1030 C   0  0  0  0  0  0  0  0  0  0  0  0
  -25.3390  -11.6740  -14.5760 C   0  0  0  0  0  0  0  0  0  0  0  0
  -23.8910  -19.9370  -11.2760 C   0  0  0  0  0  0  0  0  0  0  0  0
  -21.8120  -16.2630   -8.8340 C   0  0  0  0  0  0  0  0  0  0  0  0
  -19.7100  -15.6260  -13.6440 C   0  0  0  0  0  0  0  0  0  0  0  0
  -22.3220  -12.9470  -11.1640 C   0  0  0  0  0  0  0  0  0  0  0  0
  -17.3930  -11.1280  -15.9840 C   0  0  0  0  0  0  0  0  0  0  0  0
  -25.2410  -12.3890  -18.3390 C   0  0  0  0  0  0  0  0  0  0  0  0
  -17.4200  -19.3340  -11.7080 C   0  0  0  0  0  0  0  0  0  0  0  0
  -14.4100  -16.5200  -10.0130 C   0  0  0  0  0  0  0  0  0  0  0  0
  1  2  1  0
  1  3  2  0
  1  4  1  0
  2 45  1  0
  4  5  1  0
  4  9  1  0
  5  6  1  0
  6  7  1  0
  7  8  1  0
  8  9  1  0
  9 10  1  0
 10 11  2  0
 10 12  1  0
 12 13  2  0
 12 14  1  0
 14 15  1  0
 14 16  1  0
 14 17  1  0
 15 20  1  0
 17 18  1  0
 17 56  1  0
 18 19  1  0
 19 20  1  0
 20 21  1  0
 21 22  1  0
 22 23  1  0
 22 24  1  0
 23 63  1  0
 24 25  2  0
 24 57  1  0
 25 26  1  0
 26 27  1  0
 27 28  1  0
 28 29  2  0
 29 30  1  0
 30 31  1  0
 30 58  1  0
 31 32  1  0
 32 33  1  0
 32 59  1  0
 33 34  2  0
 33 35  1  0
 35 36  1  0
 35 37  1  0
 36 64  1  0
 37 38  1  0
 37 39  1  0
 39 40  2  0
 39 60  1  0
 40 41  1  0
 41 42  1  0
 41 61  1  0
 42 43  2  0
 42 44  1  0
 44 45  1  0
 45 46  1  0
 46 47  1  0
 46 62  1  0
 47 48  1  0
 48 49  1  0
 48 55  1  0
 49 50  1  0
 50 51  1  0
 50 52  1  0
 51 65  1  0
 52 53  1  0
 52 54  1  0
 54 55  1  0
M  END
>  <s_m_entry_id>  (11) 
1068

>  <s_m_entry_name>  (11) 
1fkl.1

>  <s_pdb_PDB_TITLE>  (11) 
ATOMIC STRUCTURE OF FKBP12-RAPAYMYCIN, AN IMMUNOPHILIN- IMMUNOSUPPRESSANT COMPLEX

>  <s_m_Source_Path>  (11) 
/nfs/zone2/sindhikara/master/src/validation_scripts/tests/prime/macrocycle/BMS208

>  <s_m_Source_File>  (11) 
208refs.maegz

>  <i_m_Source_File_Index>  (11) 
158

>  <s_pdb_PDB_ID>  (11) 
1FKL

>  <r_pdb_PDB_R>  (11) 
0.181

>  <r_pdb_PDB_RESOLUTION>  (11) 
1.7

>  <s_m_Molecular_formula>  (11) 
C51H81N1O13

>  <r_m_Molecular_weight>  (11) 
916.21312

>  <i_m_Number_of_heavy_atoms>  (11) 
65

>  <i_m_Number_of_atoms>  (11) 
146

>  <s_user_Group>  (11) 
Tacrolimus/analog

>  <s_user_Preparation>  (11) 
reference

>  <s_user_Primary_PMID>  (11) 
15299838                                                     

>  <s_user_Primary_DOI>  (11) 
10.1107/S0907444994014514     

>  <s_user_Unique_SMILES>  (11) 
C1C[C@@H](O)[C@H](OC)C[C@@H]1C[C@@H](C)[C@@H](OC(=O)[C@H]2N(C(=O)C3=O)CCCC2)CC(=O)[C@H](C)/C=C(\C)[C@@H](O)[C@@H](OC)C(=O)[C@H](C)C[C@H](C)/C=C/CC/C=C(\C)[C@@H](OC)C[C@@H](O4)CC[C@@H](C)[C@]34O

>  <s_user_Source>  (11) 
PDB

>  <s_user_InChI1S_Key>  (11) 
InChIKey=MZIHHNCTURJSFJ-VIGGEQQBSA-N

>  <s_user_Sample>  (11) 
TRAIN

>  <s_user_Name>  (11) 
tacrolimus-like

>  <s_m_subgroup_title>  (11) 
208refs

>  <s_m_subgroupid>  (11) 
208refs

>  <b_m_subgroup_collapsed>  (11) 
0

$$$$
1HHY-A_conf1
     RDKit          3D

 91 99  0  0  1  0  0  0  0  0999 V2000
    4.3265    0.7656    2.7728 N   0  0  0  0  0  0  0  0  0  0  0  0
    3.8902   -0.4045    3.5731 C   0  0  0  0  0  0  0  0  0  0  0  0
    3.2676    1.6488    2.2221 C   0  0  0  0  0  0  0  0  0  0  0  0
    2.7019    0.9382    0.9841 C   0  0  0  0  0  0  0  0  0  0  0  0
    3.4646    0.2116    0.3511 O   0  0  0  0  0  0  0  0  0  0  0  0
    2.2243    2.1097    3.2846 C   0  0  0  0  0  0  0  0  0  0  0  0
    1.8271    3.6041    3.2159 C   0  0  0  0  0  0  0  0  0  0  0  0
    0.9432    3.9751    4.4156 C   0  0  0  0  0  0  0  0  0  0  0  0
    1.1261    4.0147    1.9096 C   0  0  0  0  0  0  0  0  0  0  0  0
    0.6129    0.3144   -0.2743 C   0  0  0  0  0  0  0  0  0  0  0  0
    0.5641   -1.1713    0.1554 C   0  0  0  0  0  0  0  0  0  0  0  0
    0.6983   -2.0707   -0.6669 O   0  0  0  0  0  0  0  0  0  0  0  0
   -2.5170   -2.6697   -3.6062 Cl  0  0  0  0  0  0  0  0  0  0  0  0
   -0.7924    1.0154   -0.2790 C   0  0  0  0  0  0  0  0  0  0  0  0
   -1.1515    1.2405    1.0856 O   0  0  0  0  0  0  0  0  0  0  0  0
   -1.9582    0.3603   -1.0184 C   0  0  0  0  0  0  0  0  0  0  0  0
   -1.7591   -0.5993   -2.0387 C   0  0  0  0  0  0  0  0  0  0  0  0
   -3.2822    0.6630   -0.6184 C   0  0  0  0  0  0  0  0  0  0  0  0
   -2.8355   -1.3853   -2.4970 C   0  0  0  0  0  0  0  0  0  0  0  0
   -4.3630   -0.0995   -1.0959 C   0  0  0  0  0  0  0  0  0  0  0  0
   -4.1282   -1.1812   -1.9663 C   0  0  0  0  0  0  0  0  0  0  0  0
   -5.1097   -2.1250   -2.1290 O   0  0  0  0  0  0  0  0  0  0  0  0
    1.4144    1.0973    0.6721 N   0  0  0  0  0  0  0  0  0  0  0  0
    0.3893   -1.4183    1.4583 N   0  0  0  0  0  0  0  0  0  0  0  0
   -0.1515   -2.6705    1.9881 C   0  0  0  0  0  0  0  0  0  0  0  0
   -1.6811   -2.5690    1.9453 C   0  0  0  0  0  0  0  0  0  0  0  0
   -2.1998   -1.4470    1.9839 O   0  0  0  0  0  0  0  0  0  0  0  0
    0.2542   -2.8630    3.4781 C   0  0  0  0  0  0  0  0  0  0  0  0
    0.0471   -1.6438    4.3907 C   0  0  0  0  0  0  0  0  0  0  0  0
    0.9324   -0.7935    4.4785 O   0  0  0  0  0  0  0  0  0  0  0  0
   -1.0964   -1.5281    5.0585 N   0  0  0  0  0  0  0  0  0  0  0  0
   -2.3672   -3.7243    1.8982 N   0  0  0  0  0  0  0  0  0  0  0  0
   -3.7717   -3.9845    2.2756 C   0  0  0  0  0  0  0  0  0  0  0  0
   -4.3266   -2.9962    3.3514 C   0  0  0  0  0  0  0  0  0  0  0  0
   -3.6364   -2.7339    4.3428 O   0  0  0  0  0  0  0  0  0  0  0  0
   -4.6888   -3.9815    1.0611 C   0  0  0  0  0  0  0  0  0  0  0  0
   -4.3943   -3.1182   -0.0139 C   0  0  0  0  0  0  0  0  0  0  0  0
   -5.3263   -3.0027   -1.0751 C   0  0  0  0  0  0  0  0  0  0  0  0
   -6.5074   -3.7741   -1.0497 C   0  0  0  0  0  0  0  0  0  0  0  0
   -6.7365   -4.7025   -0.0079 C   0  0  0  0  0  0  0  0  0  0  0  0
   -5.8276   -4.8226    1.0704 C   0  0  0  0  0  0  0  0  0  0  0  0
   -7.4492   -3.5984   -2.0267 O   0  0  0  0  0  0  0  0  0  0  0  0
   -5.5500   -2.5084    3.1495 N   0  0  0  0  0  0  0  0  0  0  0  0
   -6.5292   -1.7890    3.9571 C   0  0  0  0  0  0  0  0  0  0  0  0
   -7.7734   -2.7007    4.0221 C   0  0  0  0  0  0  0  0  0  0  0  0
   -7.6799   -3.8662    3.6448 O   0  0  0  0  0  0  0  0  0  0  0  0
   -6.2349   -1.5736    5.4262 C   0  0  0  0  0  0  0  0  0  0  0  0
   -6.4207   -0.2895    5.9882 C   0  0  0  0  0  0  0  0  0  0  0  0
   -6.5450   -0.1135    7.3784 C   0  0  0  0  0  0  0  0  0  0  0  0
   -6.4905   -1.2231    8.2374 C   0  0  0  0  0  0  0  0  0  0  0  0
   -6.1745   -2.4994    7.7263 C   0  0  0  0  0  0  0  0  0  0  0  0
   -6.0009   -2.6433    6.3324 C   0  0  0  0  0  0  0  0  0  0  0  0
   -6.8020   -1.0561    9.5529 O   0  0  0  0  0  0  0  0  0  0  0  0
   -8.8455   -2.2375    4.6903 N   0  0  0  0  0  0  0  0  0  0  0  0
   -9.9370   -3.0462    5.2447 C   0  0  0  0  0  0  0  0  0  0  0  0
   -9.3611   -4.1549    6.1634 C   0  0  0  0  0  0  0  0  0  0  0  0
   -9.4948   -5.3528    5.9269 O   0  0  0  0  0  0  0  0  0  0  0  0
  -11.0359   -3.4987    4.2240 C   0  0  0  0  0  0  0  0  0  0  0  0
  -12.0105   -4.2950    4.9215 O   0  0  0  0  0  0  0  0  0  0  0  0
  -10.5219   -4.1586    2.9473 C   0  0  0  0  0  0  0  0  0  0  0  0
  -10.1140   -5.5100    2.9282 C   0  0  0  0  0  0  0  0  0  0  0  0
  -10.2534   -3.3427    1.8243 C   0  0  0  0  0  0  0  0  0  0  0  0
   -9.2643   -5.9769    1.9043 C   0  0  0  0  0  0  0  0  0  0  0  0
   -9.4285   -3.8182    0.7895 C   0  0  0  0  0  0  0  0  0  0  0  0
   -8.8617   -5.1056    0.8686 C   0  0  0  0  0  0  0  0  0  0  0  0
   -7.8785   -5.4753   -0.0137 O   0  0  0  0  0  0  0  0  0  0  0  0
   -8.6428   -7.5879    1.9927 Cl  0  0  0  0  0  0  0  0  0  0  0  0
   -8.7668   -3.7132    7.2710 N   0  0  0  0  0  0  0  0  0  0  0  0
   -8.5621   -4.4843    8.4772 C   0  0  0  0  0  0  0  0  0  0  0  0
   -9.3803   -3.6804    9.4990 C   0  0  0  0  0  0  0  0  0  0  0  0
   -8.9372   -2.5543    9.8215 O   0  0  0  0  0  0  0  0  0  0  0  0
  -10.5607   -4.0627    9.6919 O   0  0  0  0  0  0  0  0  0  0  0  0
   -7.1223   -4.5567    8.9499 C   0  0  0  0  0  0  0  0  0  0  0  0
   -6.0406   -3.6734    8.6160 C   0  0  0  0  0  0  0  0  0  0  0  0
   -6.8289   -5.6356    9.8212 C   0  0  0  0  0  0  0  0  0  0  0  0
   -4.7513   -3.9050    9.1618 C   0  0  0  0  0  0  0  0  0  0  0  0
   -5.5509   -5.8554   10.3563 C   0  0  0  0  0  0  0  0  0  0  0  0
   -4.5040   -4.9870   10.0209 C   0  0  0  0  0  0  0  0  0  0  0  0
   -5.3388   -6.9066   11.2009 O   0  0  0  0  0  0  0  0  0  0  0  0
   -3.7158   -3.0627    8.8637 O   0  0  0  0  0  0  0  0  0  0  0  0
  -13.1730   -3.6563    5.3382 C   0  0  0  0  0  0  0  0  0  0  0  0
  -14.1249   -4.7052    5.9690 C   0  0  0  0  0  0  0  0  0  0  0  0
  -13.7037   -5.0919    7.4135 C   0  0  0  0  0  0  0  0  0  0  0  0
  -12.5194   -6.0806    7.4239 C   0  0  0  0  0  0  0  0  0  0  0  0
  -14.8075   -5.7435    8.1238 N   0  0  0  0  0  0  0  0  0  0  0  0
  -13.4982   -3.8123    8.2413 C   0  0  0  0  0  0  0  0  0  0  0  0
  -14.7527   -3.1640    8.3276 O   0  0  0  0  0  0  0  0  0  0  0  0
  -13.1124   -4.2249    9.5258 O   0  0  0  0  0  0  0  0  0  0  0  0
  -12.5129   -2.8545    7.5486 C   0  0  0  0  0  0  0  0  0  0  0  0
  -12.9704   -2.5814    6.2193 O   0  0  0  0  0  0  0  0  0  0  0  0
  -12.3202   -1.5168    8.2800 C   0  0  0  0  0  0  0  0  0  0  0  0
  1  2  1  0
  1  3  1  0
  3  4  1  0
  3  6  1  0
  4  5  2  0
  4 23  1  0
  6  7  1  0
  7  8  1  0
  7  9  1  0
 10 11  1  0
 10 14  1  0
 10 23  1  0
 11 12  2  0
 11 24  1  0
 13 19  1  0
 14 15  1  0
 14 16  1  0
 16 17  2  0
 16 18  1  0
 17 19  1  0
 18 20  2  0
 19 21  2  0
 20 21  1  0
 21 22  1  0
 22 38  1  0
 24 25  1  0
 25 26  1  0
 25 28  1  0
 26 27  2  0
 26 32  1  0
 28 29  1  0
 29 30  2  0
 29 31  1  0
 32 33  1  0
 33 34  1  0
 33 36  1  0
 34 35  2  0
 34 43  1  0
 36 37  1  0
 36 41  2  0
 37 38  2  0
 38 39  1  0
 39 40  2  0
 39 42  1  0
 40 41  1  0
 40 66  1  0
 43 44  1  0
 44 45  1  0
 44 47  1  0
 45 46  2  0
 45 54  1  0
 47 48  1  0
 47 52  2  0
 48 49  2  0
 49 50  1  0
 50 51  2  0
 50 53  1  0
 51 52  1  0
 51 74  1  0
 54 55  1  0
 55 56  1  0
 55 58  1  0
 56 57  2  0
 56 68  1  0
 58 59  1  0
 58 60  1  0
 59 81  1  0
 60 61  2  0
 60 62  1  0
 61 63  1  0
 62 64  2  0
 63 65  2  0
 63 67  1  0
 64 65  1  0
 65 66  1  0
 68 69  1  0
 69 70  1  0
 69 73  1  0
 70 71  2  0
 70 72  1  0
 73 74  1  0
 73 75  2  0
 74 76  2  0
 75 77  1  0
 76 78  1  0
 76 80  1  0
 77 78  2  0
 77 79  1  0
 81 82  1  0
 81 90  1  0
 82 83  1  0
 83 84  1  0
 83 85  1  0
 83 86  1  0
 86 87  1  0
 86 88  1  0
 86 89  1  0
 89 90  1  0
 89 91  1  0
M  CHG  4   1   1  42  -1  72  -1  85   1
M  END
>  <i_m_stars>  (12) 
2

>  <s_m_entry_id>  (12) 
1046

>  <s_m_entry_name>  (12) 
208refs.136

>  <s_m_Source_Path>  (12) 
/nfs/zone2/sindhikara/master/src/validation_scripts/tests/prime/macrocycle/BMS208

>  <s_m_Source_File>  (12) 
208refs.maegz

>  <i_m_Source_File_Index>  (12) 
136

>  <r_lp_tautomer_probability>  (12) 
0.999999999895365

>  <r_epik_Ionization_Penalty>  (12) 
  0.2064

>  <r_epik_Ionization_Penalty_Charging>  (12) 
  0.1993

>  <r_epik_Ionization_Penalty_Neutral>  (12) 
  0.0071

>  <r_epik_State_Penalty>  (12) 
  0.1282

>  <i_epik_Tot_Q>  (12) 
0

>  <i_lp_mmshare_version>  (12) 
32005

>  <r_pdb_PDB_RESOLUTION>  (12) 
0.89

>  <r_pdb_PDB_EXPDTA_PH>  (12) 
7

>  <s_user_comment>  (12) 
3 backbone NH's are coordinated to spectator CO2-; unpaired opp. charges

>  <r_f3d_energy>  (12) 
1706.60616051269

>  <s_epik_Chemistry_Notes>  (12) 
This compound contains an acetal/aminal-like group ( X-CH(R)-Y where X, Y are N, S, or O) that may be acid/base labile, releasing an aldehyde.

>  <r_ff_Potential_Energy-OPLS_2005>  (12) 
-217.759095705044

>  <r_ff_RMS_Derivative-OPLS_2005>  (12) 
0.398573456083924

>  <b_ff_Minimization_Converged-OPLS_2005>  (12) 
0

>  <s_user_Group>  (12) 
B1

>  <s_user_mc_backbone_quality>  (12) 
A

>  <s_user_overall_b-factors>  (12) 
A

>  <s_user_ligand_name>  (12) 
vancomycin-like; DEGLUCOBALHIMYCIN 

>  <s_user_mc_bb_conf_conserved>  (12) 
A

>  <s_m_subgroup_title>  (12) 
208refs

>  <s_m_subgroupid>  (12) 
208refs

>  <b_m_subgroup_collapsed>  (12) 
0

$$$$
1KEG
     RDKit          3D

 77 85  0  0  1  0  0  0  0  0999 V2000
    9.3320   23.1290   68.0080 O   0  0  0  0  0  0  0  0  0  0  0  0
    9.3920   24.1280   66.9840 C   0  0  0  0  0  0  0  0  0  0  0  0
    9.0430   25.4880   67.5530 C   0  0  0  0  0  0  0  0  0  0  0  0
    9.8200   25.7320   68.7430 O   0  0  0  0  0  0  0  0  0  0  0  0
    9.3620   26.6390   66.6100 C   0  0  0  0  0  0  0  0  0  0  0  0
    8.4080   27.6960   66.7830 O   0  0  0  0  0  0  0  0  0  0  0  0
   10.7780   27.0310   67.0000 C   0  0  0  0  0  0  0  0  0  0  0  0
   10.8870   26.6330   68.4700 C   0  0  0  0  0  0  0  0  0  0  0  0
   12.1350   25.9240   68.8180 N   0  0  0  0  0  0  0  0  0  0  0  0
   13.2620   26.6500   69.1390 C   0  0  0  0  0  0  0  0  0  0  0  0
   13.3100   27.8680   69.0950 O   0  0  0  0  0  0  0  0  0  0  0  0
   14.3430   25.8850   69.5110 N   0  0  0  0  0  0  0  0  0  0  0  0
   14.4110   24.5010   69.5710 C   0  0  0  0  0  0  0  0  0  0  0  0
   15.4470   23.9520   69.9460 O   0  0  0  0  0  0  0  0  0  0  0  0
   13.2060   23.8070   69.1730 C   0  0  0  0  0  0  0  0  0  0  0  0
   13.1940   22.3110   69.1590 C   0  0  0  0  0  0  0  0  0  0  0  0
   12.1450   24.5440   68.8290 C   0  0  0  0  0  0  0  0  0  0  0  0
    7.8270   28.4560   65.4940 P   0  0  0  0  0  0  0  0  0  0  0  0
    6.7080   29.3370   65.9060 O   0  0  0  0  0  0  0  0  0  0  0  0
    7.6080   27.4430   64.4320 O   0  0  0  0  0  0  0  0  0  0  0  0
    9.0450   29.3880   65.0750 O   0  0  0  0  0  0  0  0  0  0  0  0
    9.7230   30.1600   66.0610 C   0  0  0  0  0  0  0  0  0  0  0  0
   10.6250   31.1750   65.4040 C   0  0  0  0  0  0  0  0  0  0  0  0
   11.7900   30.4470   64.9400 O   0  0  0  0  0  0  0  0  0  0  0  0
    9.9970   31.8150   64.1680 C   0  0  0  0  0  0  0  0  0  0  0  0
    9.6120   33.1790   64.2740 O   0  0  0  0  0  0  0  0  0  0  0  0
   11.0480   31.7000   63.0870 C   0  0  0  0  0  0  0  0  0  0  0  0
   12.1890   30.8850   63.6570 C   0  0  0  0  0  0  0  0  0  0  0  0
   12.4870   29.7020   62.7490 N   0  0  0  0  0  0  0  0  0  0  0  0
   13.7000   29.4210   62.4010 C   0  0  0  0  0  0  0  0  0  0  0  0
   14.6880   30.0750   62.7760 O   0  0  0  0  0  0  0  0  0  0  0  0
   13.9120   28.3420   61.5520 N   0  0  0  0  0  0  0  0  0  0  0  0
   12.8930   27.5290   61.0330 C   0  0  0  0  0  0  0  0  0  0  0  0
   13.1290   26.7850   60.1240 O   0  0  0  0  0  0  0  0  0  0  0  0
   11.5310   27.6420   61.6600 C   0  0  0  0  0  0  0  0  0  0  0  0
   11.4440   26.6530   62.8190 C   0  0  0  0  0  0  0  0  0  0  0  0
   10.5370   27.3380   60.6850 O   0  0  0  0  0  0  0  0  0  0  0  0
   11.2560   29.0810   62.1850 C   0  0  0  0  0  0  0  0  0  0  0  0
    8.3690   33.6860   63.3860 P   0  0  0  0  0  0  0  0  0  0  0  0
    8.0100   35.0570   63.8080 O   0  0  0  0  0  0  0  0  0  0  0  0
    7.3470   32.6150   63.4570 O   0  0  0  0  0  0  0  0  0  0  0  0
    8.9180   33.6860   61.8780 O   0  0  0  0  0  0  0  0  0  0  0  0
    9.3820   34.8870   61.2320 C   0  0  0  0  0  0  0  0  0  0  0  0
    8.9610   34.9150   59.7750 C   0  0  0  0  0  0  0  0  0  0  0  0
    9.8660   34.1470   58.9460 O   0  0  0  0  0  0  0  0  0  0  0  0
    7.5640   34.3570   59.5150 C   0  0  0  0  0  0  0  0  0  0  0  0
    6.6980   35.2430   58.8170 O   0  0  0  0  0  0  0  0  0  0  0  0
    7.7690   33.0760   58.7230 C   0  0  0  0  0  0  0  0  0  0  0  0
    9.2590   32.9420   58.5000 C   0  0  0  0  0  0  0  0  0  0  0  0
    9.7920   31.8840   59.4250 N   0  0  0  0  0  0  0  0  0  0  0  0
   11.1180   31.6440   59.5120 C   0  0  0  0  0  0  0  0  0  0  0  0
   11.9330   32.2720   58.8120 O   0  0  0  0  0  0  0  0  0  0  0  0
   11.5560   30.7040   60.4090 N   0  0  0  0  0  0  0  0  0  0  0  0
   10.6530   30.0590   61.1540 C   0  0  0  0  0  0  0  0  0  0  0  0
    9.2750   30.2660   61.0690 C   0  0  0  0  0  0  0  0  0  0  0  0
    8.2150   29.5680   61.8880 C   0  0  0  0  0  0  0  0  0  0  0  0
    8.8840   31.2000   60.1830 C   0  0  0  0  0  0  0  0  0  0  0  0
    5.1200   35.1380   59.0850 P   0  0  0  0  0  0  0  0  0  0  0  0
    4.8660   33.6860   59.2740 O   0  0  0  0  0  0  0  0  0  0  0  0
    4.3700   35.8840   58.0420 O   0  0  0  0  0  0  0  0  0  0  0  0
    4.9210   35.8800   60.4830 O   0  0  0  0  0  0  0  0  0  0  0  0
    5.3950   35.2990   61.6970 C   0  0  0  0  0  0  0  0  0  0  0  0
    4.9310   36.1100   62.8870 C   0  0  0  0  0  0  0  0  0  0  0  0
    3.5340   36.4170   62.7280 O   0  0  0  0  0  0  0  0  0  0  0  0
    5.0260   35.3500   64.2070 C   0  0  0  0  0  0  0  0  0  0  0  0
    5.1840   36.2470   65.3100 O   0  0  0  0  0  0  0  0  0  0  0  0
    3.7010   34.6160   64.2740 C   0  0  0  0  0  0  0  0  0  0  0  0
    2.7460   35.4610   63.4250 C   0  0  0  0  0  0  0  0  0  0  0  0
    2.0100   34.6970   62.3900 N   0  0  0  0  0  0  0  0  0  0  0  0
    2.1370   33.3090   62.3150 C   0  0  0  0  0  0  0  0  0  0  0  0
    2.7880   32.6310   63.1150 O   0  0  0  0  0  0  0  0  0  0  0  0
    1.4580   32.7300   61.2540 N   0  0  0  0  0  0  0  0  0  0  0  0
    0.6810   33.3770   60.2950 C   0  0  0  0  0  0  0  0  0  0  0  0
    0.1380   32.7200   59.3890 O   0  0  0  0  0  0  0  0  0  0  0  0
    0.5740   34.8180   60.4540 C   0  0  0  0  0  0  0  0  0  0  0  0
   -0.2500   35.6000   59.4720 C   0  0  0  0  0  0  0  0  0  0  0  0
    1.2300   35.3920   61.4810 C   0  0  0  0  0  0  0  0  0  0  0  0
  1  2  1  0
  2  3  1  0
  3  4  1  0
  3  5  1  0
  4  8  1  0
  5  6  1  0
  5  7  1  0
  6 18  1  0
  7  8  1  0
  8  9  1  0
  9 10  1  0
  9 17  1  0
 10 11  2  0
 10 12  1  0
 12 13  1  0
 13 14  2  0
 13 15  1  0
 15 16  1  0
 15 17  2  0
 18 19  2  0
 18 20  1  0
 18 21  1  0
 21 22  1  0
 22 23  1  0
 23 24  1  0
 23 25  1  0
 24 28  1  0
 25 26  1  0
 25 27  1  0
 26 39  1  0
 27 28  1  0
 28 29  1  0
 29 30  1  0
 29 38  1  0
 30 31  2  0
 30 32  1  0
 32 33  1  0
 33 34  2  0
 33 35  1  0
 35 36  1  0
 35 37  1  0
 35 38  1  0
 38 54  1  0
 39 40  2  0
 39 41  1  0
 39 42  1  0
 42 43  1  0
 43 44  1  0
 44 45  1  0
 44 46  1  0
 45 49  1  0
 46 47  1  0
 46 48  1  0
 47 58  1  0
 48 49  1  0
 49 50  1  0
 50 51  1  0
 50 57  1  0
 51 52  2  0
 51 53  1  0
 53 54  2  0
 54 55  1  0
 55 56  1  0
 55 57  2  0
 58 59  2  0
 58 60  1  0
 58 61  1  0
 61 62  1  0
 62 63  1  0
 63 64  1  0
 63 65  1  0
 64 68  1  0
 65 66  1  0
 65 67  1  0
 67 68  1  0
 68 69  1  0
 69 70  1  0
 69 77  1  0
 70 71  2  0
 70 72  1  0
 72 73  1  0
 73 74  2  0
 73 75  1  0
 75 76  1  0
 75 77  2  0
M  CHG  3  20  -1  41  -1  60  -1
M  END
>  <s_m_entry_id>  (13) 
1069

>  <s_m_entry_name>  (13) 
1keg.1

>  <s_pdb_PDB_TITLE>  (13) 
ANTIBODY 64M-2 FAB COMPLEXED WITH DTT(6-4)TT

>  <s_m_Source_Path>  (13) 
/nfs/zone2/sindhikara/master/src/validation_scripts/tests/prime/macrocycle/BMS208

>  <s_m_Source_File>  (13) 
208refs.maegz

>  <i_m_Source_File_Index>  (13) 
159

>  <s_pdb_PDB_ID>  (13) 
1KEG

>  <r_pdb_PDB_R>  (13) 
0.201

>  <r_pdb_PDB_Rfree>  (13) 
0.268

>  <r_pdb_PDB_RESOLUTION>  (13) 
2.4

>  <s_m_Molecular_formula>  (13) 
C40H52N8O26P3

>  <r_m_Molecular_weight>  (13) 
1153.81984

>  <i_m_Number_of_heavy_atoms>  (13) 
77

>  <i_m_Number_of_atoms>  (13) 
129

>  <s_user_Group>  (13) 
Example PDB

>  <s_user_Preparation>  (13) 
reference

>  <s_user_Unique_SMILES>  (13) 
Cc1c(=O)[nH]c(=O)n(c1)[C@H](O2)C[C@H](O)[C@H]2COP([O-])(=O)O[C@H]([C@H](O3)COP([O-])(=O)O4)C[C@@H]3n(c(n5)=O)cc(C)c5[C@@H]([C@@](C)(O)C(=O)NC6=O)N6[C@@H](C7)O[C@@H]([C@@H]47)COP([O-])(=O)O[C@H]([C@H]8CO)C[C@@H](O8)n(c9)c(=O)[nH]c(=O)c9C

>  <s_user_Source>  (13) 
PDB

>  <s_user_InChI1S_Key>  (13) 
InChIKey=MKWDPOUOLYFPAD-RIDDKKTKSA-N

>  <s_user_Sample>  (13) 
TRAIN

>  <s_user_Name>  (13) 
dTT(6-4)TT

>  <s_user_Microstate_Comment>  (13) 
amide N should be NH

>  <s_m_subgroup_title>  (13) 
208refs

>  <s_m_subgroupid>  (13) 
208refs

>  <b_m_subgroup_collapsed>  (13) 
0

$$$$
1KHR
     RDKit          3D

 38 40  0  0  1  0  0  0  0  0999 V2000
   24.8447   55.8565   57.9970 C   0  0  0  0  0  0  0  0  0  0  0  0
   26.9807   59.5165   61.0660 C   0  0  0  0  0  0  0  0  0  0  0  0
   24.9027   59.8455   60.5610 C   0  0  0  0  0  0  0  0  0  0  0  0
   28.2977   59.7875   61.6740 C   0  0  0  0  0  0  0  0  0  0  0  0
   29.3777   58.8285   61.2350 C   0  0  0  0  0  0  0  0  0  0  0  0
   29.9437   58.7825   59.8190 C   0  0  0  0  0  0  0  0  0  0  0  0
   30.8567   57.6045   59.5440 C   0  0  0  0  0  0  0  0  0  0  0  0
   30.5827   56.8475   58.2670 C   0  0  0  0  0  0  0  0  0  0  0  0
   25.2317   54.6195   58.3190 C   0  0  0  0  0  0  0  0  0  0  0  0
   30.5137   55.5295   58.1870 C   0  0  0  0  0  0  0  0  0  0  0  0
   30.7457   54.6045   59.3640 C   0  0  0  0  0  0  0  0  0  0  0  0
   30.1237   54.9795   56.8960 C   0  0  0  0  0  0  0  0  0  0  0  0
   29.1737   53.9785   56.8820 C   0  0  0  0  0  0  0  0  0  0  0  0
   28.5567   53.3445   55.6270 C   0  0  0  0  0  0  0  0  0  0  0  0
   26.6807   54.4145   54.5180 C   0  0  0  0  0  0  0  0  0  0  0  0
   25.2267   54.5705   55.0930 C   0  0  0  0  0  0  0  0  0  0  0  0
   24.3447   54.2565   54.4920 C   0  0  0  0  0  0  0  0  0  0  0  0
   26.0527   54.6155   59.5980 C   0  0  0  0  0  0  0  0  0  0  0  0
   22.7547   54.1515   54.6360 C   0  0  0  0  0  0  0  0  0  0  0  0
   22.2877   52.7495   55.0640 C   0  0  0  0  0  0  0  0  0  0  0  0
   22.0667   55.2195   55.6080 C   0  0  0  0  0  0  0  0  0  0  0  0
   20.7467   54.7075   56.1750 C   0  0  0  0  0  0  0  0  0  0  0  0
   20.0577   55.7465   57.0720 C   0  0  0  0  0  0  0  0  0  0  0  0
   19.7787   54.3085   55.0450 C   0  0  0  0  0  0  0  0  0  0  0  0
   23.9937   56.2195   56.7850 C   0  0  0  0  0  0  0  0  0  0  0  0
   26.0947   56.0755   60.0090 C   0  0  0  0  0  0  0  0  0  0  0  0
   24.7227   57.9215   59.0490 C   0  0  0  0  0  0  0  0  0  0  0  0
   25.4077   58.7635   59.9620 C   0  0  0  0  0  0  0  0  0  0  0  0
   27.1877   53.7365   55.5300 N   0  0  0  0  0  0  0  0  0  0  0  0
   25.3347   56.7875   58.9050 N   0  0  0  0  0  0  0  0  0  0  0  0
   26.7087   58.5655   60.2710 N   0  0  0  0  0  0  0  0  0  0  0  0
   25.9187   60.3705   61.3060 O   0  0  0  0  0  0  0  0  0  0  0  0
   29.7927   58.0555   62.0890 O   0  0  0  0  0  0  0  0  0  0  0  0
   32.2127   58.1185   59.4760 O   0  0  0  0  0  0  0  0  0  0  0  0
   27.3377   54.8005   53.5260 O   0  0  0  0  0  0  0  0  0  0  0  0
   22.8247   55.5465   56.8470 O   0  0  0  0  0  0  0  0  0  0  0  0
   24.3207   56.9695   55.8970 O   0  0  0  0  0  0  0  0  0  0  0  0
   23.7227   58.2705   58.4320 O   0  0  0  0  0  0  0  0  0  0  0  0
  1  9  2  0
  1 25  1  0
  1 30  1  0
  2  4  1  0
  2 31  2  0
  2 32  1  0
  3 28  2  0
  3 32  1  0
  4  5  1  0
  5  6  1  0
  5 33  2  0
  6  7  1  0
  7  8  1  0
  7 34  1  0
  8 10  2  0
  9 18  1  0
 10 11  1  0
 10 12  1  0
 12 13  2  0
 13 14  1  0
 14 29  1  0
 15 16  1  0
 15 29  1  0
 15 35  2  0
 16 17  2  0
 17 19  1  0
 18 26  1  0
 19 20  1  0
 19 21  1  0
 21 22  1  0
 21 36  1  0
 22 23  1  0
 22 24  1  0
 25 36  1  0
 25 37  2  0
 26 30  1  0
 27 28  1  0
 27 30  1  0
 27 38  2  0
 28 31  1  0
M  END
>  <i_m_stars>  (14) 
0

>  <s_m_entry_id>  (14) 
1070

>  <s_m_entry_name>  (14) 
1khr.1

>  <s_pdb_PDB_TITLE>  (14) 
CRYSTAL STRUCTURE OF VAT(D) IN COMPLEX WITH VIRGINIAMYCIN AND COENZYME A

>  <s_m_Source_Path>  (14) 
/nfs/zone2/sindhikara/master/src/validation_scripts/tests/prime/macrocycle/BMS208

>  <s_m_Source_File>  (14) 
208refs.maegz

>  <i_m_Source_File_Index>  (14) 
160

>  <s_pdb_PDB_ID>  (14) 
1KHR

>  <r_pdb_PDB_R>  (14) 
0.186

>  <r_pdb_PDB_Rfree>  (14) 
0.251

>  <r_pdb_PDB_RESOLUTION>  (14) 
2.8

>  <s_m_Molecular_formula>  (14) 
C28H35N3O7

>  <r_m_Molecular_weight>  (14) 
525.60705

>  <i_m_Number_of_heavy_atoms>  (14) 
38

>  <i_m_Number_of_atoms>  (14) 
73

>  <s_user_Group>  (14) 
Example PDB

>  <s_user_Preparation>  (14) 
reference

>  <s_user_Primary_PMID>  (14) 
11841212                                                     

>  <s_user_Primary_DOI>  (14) 
10.1021/BI011991B      

>  <s_user_Unique_SMILES>  (14) 
C1CCN(C2=O)C=1C(=O)O[C@H](C(C)C)[C@H](C)\C=C\C(=O)NC\C=C\C(\C)=C\[C@@H](O)CC(=O)Cc(n3)occ23

>  <s_user_Source>  (14) 
PDB

>  <s_user_InChI1S_Key>  (14) 
InChIKey=DAIKHDNSXMZDCU-FQTGFAPKSA-N

>  <s_user_Sample>  (14) 
TEST

>  <s_user_Name>  (14) 
Virginiamycin-like

>  <s_user_Microstate_Comment>  (14) 
proline probably oxidized (M1)

>  <s_m_subgroup_title>  (14) 
208refs

>  <s_m_subgroupid>  (14) 
208refs

>  <b_m_subgroup_collapsed>  (14) 
0

$$$$
1MIK_conf2
     RDKit          3D

 87 87  0  0  1  0  0  0  0  0999 V2000
   -7.2919    2.1726   -7.6887 N   0  0  0  0  0  0  0  0  0  0  0  0
   -6.0232    2.2241   -8.4185 C   0  0  0  0  0  0  0  0  0  0  0  0
   -6.0675    1.2447   -9.5537 C   0  0  0  0  0  0  0  0  0  0  0  0
   -4.8632    1.8334   -7.5237 C   0  0  0  0  0  0  0  0  0  0  0  0
   -4.6331    0.6275   -7.3190 O   0  0  0  0  0  0  0  0  0  0  0  0
   -4.0334    2.8838   -6.9137 N   0  0  0  0  0  0  0  0  0  0  0  0
   -4.3376    4.2801   -7.2126 C   0  0  0  0  0  0  0  0  0  0  0  0
   -2.9143    2.5451   -6.0290 C   0  0  0  0  0  0  0  0  0  0  0  0
   -1.7678    2.0525   -6.8615 C   0  0  0  0  0  0  0  0  0  0  0  0
   -2.1934    0.8358   -7.6287 C   0  0  0  0  0  0  0  0  0  0  0  0
   -1.0470    0.3433   -8.4611 C   0  0  0  0  0  0  0  0  0  0  0  0
   -2.6128   -0.2386   -6.6697 C   0  0  0  0  0  0  0  0  0  0  0  0
   -2.4641    3.7285   -5.1990 C   0  0  0  0  0  0  0  0  0  0  0  0
   -3.3217    4.3986   -4.5927 O   0  0  0  0  0  0  0  0  0  0  0  0
   -1.0375    4.0644   -5.1267 N   0  0  0  0  0  0  0  0  0  0  0  0
   -0.0730    3.2256   -5.8323 C   0  0  0  0  0  0  0  0  0  0  0  0
   -0.5511    5.2206   -4.3752 C   0  0  0  0  0  0  0  0  0  0  0  0
   -1.5292    6.3511   -4.2505 C   0  0  0  0  0  0  0  0  0  0  0  0
   -0.9469    7.5866   -4.8705 C   0  0  0  0  0  0  0  0  0  0  0  0
   -1.9250    8.7171   -4.7459 C   0  0  0  0  0  0  0  0  0  0  0  0
   -0.6603    7.3310   -6.3205 C   0  0  0  0  0  0  0  0  0  0  0  0
   -0.0504    4.7995   -3.0144 C   0  0  0  0  0  0  0  0  0  0  0  0
    1.1608    4.9363   -2.7431 O   0  0  0  0  0  0  0  0  0  0  0  0
   -0.9855    4.2366   -2.0336 N   0  0  0  0  0  0  0  0  0  0  0  0
   -2.3921    4.0847   -2.3942 C   0  0  0  0  0  0  0  0  0  0  0  0
   -0.5450    3.8340   -0.6947 C   0  0  0  0  0  0  0  0  0  0  0  0
   -1.7514    3.8379    0.1967 C   0  0  0  0  0  0  0  0  0  0  0  0
   -1.3497    3.4309    1.5834 C   0  0  0  0  0  0  0  0  0  0  0  0
   -2.3428    5.2159    0.2316 C   0  0  0  0  0  0  0  0  0  0  0  0
    0.0784    2.4591   -0.7195 C   0  0  0  0  0  0  0  0  0  0  0  0
    1.1398    2.2817   -1.3516 O   0  0  0  0  0  0  0  0  0  0  0  0
   -0.5692    1.3499   -0.0000 N   0  0  0  0  0  0  0  0  0  0  0  0
   -1.8174    1.6098    0.7114 C   0  0  0  0  0  0  0  0  0  0  0  0
    0.0000    0.0000    0.0000 C   0  0  0  0  0  0  0  0  0  0  0  0
   -0.3964   -0.7590    1.2530 C   0  0  0  0  0  0  0  0  0  0  0  0
   -1.1062   -1.7730    1.1471 O   0  0  0  0  0  0  0  0  0  0  0  0
    1.5000    0.0000    0.0000 C   0  0  0  0  0  0  0  0  0  0  0  0
    1.9600    0.6505   -1.1268 O   0  0  0  0  0  0  0  0  0  0  0  0
    2.0000   -1.4142   -0.0000 C   0  0  0  0  0  0  0  0  0  0  0  0
    3.5000   -1.4142   -0.0000 C   0  0  0  0  0  0  0  0  0  0  0  0
    1.5000   -2.1213   -1.2247 C   0  0  0  0  0  0  0  0  0  0  0  0
    0.6667   -3.2998   -0.8165 C   0  0  0  0  0  0  0  0  0  0  0  0
   -0.3425   -3.7325   -1.5853 C   0  0  0  0  0  0  0  0  0  0  0  0
   -1.1758   -4.9110   -1.1770 C   0  0  0  0  0  0  0  0  0  0  0  0
    0.0692   -0.2731    2.5573 N   0  0  0  0  0  0  0  0  0  0  0  0
   -0.2820   -0.9463    3.8046 C   0  0  0  0  0  0  0  0  0  0  0  0
   -1.4571   -0.2499    4.4490 C   0  0  0  0  0  0  0  0  0  0  0  0
   -1.2988    0.3360    5.5399 O   0  0  0  0  0  0  0  0  0  0  0  0
    0.8849   -0.7908    4.7341 C   0  0  0  0  0  0  0  0  0  0  0  0
    2.1010   -1.4179    4.1193 C   0  0  0  0  0  0  0  0  0  0  0  0
    3.2679   -1.2624    5.0488 C   0  0  0  0  0  0  0  0  0  0  0  0
    4.3867   -1.8393    4.4831 O   0  0  0  0  0  0  0  0  0  0  0  0
   -2.7723   -0.2694    3.7885 N   0  0  0  0  0  0  0  0  0  0  0  0
   -3.9283    0.3827    4.4072 C   0  0  0  0  0  0  0  0  0  0  0  0
   -5.2374    0.1716    3.6879 C   0  0  0  0  0  0  0  0  0  0  0  0
   -5.5052   -0.9473    3.2072 O   0  0  0  0  0  0  0  0  0  0  0  0
   -2.9026   -0.9440    2.5003 C   0  0  0  0  0  0  0  0  0  0  0  0
   -6.1904    1.2855    3.5809 N   0  0  0  0  0  0  0  0  0  0  0  0
   -5.8434    2.5766    4.1677 C   0  0  0  0  0  0  0  0  0  0  0  0
   -7.4777    1.1357    2.9011 C   0  0  0  0  0  0  0  0  0  0  0  0
   -8.4077    2.1661    3.4695 C   0  0  0  0  0  0  0  0  0  0  0  0
   -9.7466    2.0534    2.8026 C   0  0  0  0  0  0  0  0  0  0  0  0
  -10.6767    3.0839    3.3711 C   0  0  0  0  0  0  0  0  0  0  0  0
  -10.3108    0.6843    3.0419 C   0  0  0  0  0  0  0  0  0  0  0  0
   -7.3545    1.4210    1.4237 C   0  0  0  0  0  0  0  0  0  0  0  0
   -6.6898    2.4057    1.0398 O   0  0  0  0  0  0  0  0  0  0  0  0
   -8.0406    0.5530    0.4547 N   0  0  0  0  0  0  0  0  0  0  0  0
   -7.9780    0.8125   -0.9848 C   0  0  0  0  0  0  0  0  0  0  0  0
   -8.9771    1.8309   -1.4755 C   0  0  0  0  0  0  0  0  0  0  0  0
   -9.4608    2.6724   -0.6909 O   0  0  0  0  0  0  0  0  0  0  0  0
   -8.2765   -0.4766   -1.6912 C   0  0  0  0  0  0  0  0  0  0  0  0
   -8.5286   -1.5546   -0.6791 C   0  0  0  0  0  0  0  0  0  0  0  0
   -7.1067   -0.8594   -2.5486 C   0  0  0  0  0  0  0  0  0  0  0  0
   -9.3751    1.8285   -2.8973 N   0  0  0  0  0  0  0  0  0  0  0  0
   -8.7840    0.8344   -3.7884 C   0  0  0  0  0  0  0  0  0  0  0  0
  -10.3436    2.8048   -3.4048 C   0  0  0  0  0  0  0  0  0  0  0  0
   -9.8463    4.1863   -3.0977 C   0  0  0  0  0  0  0  0  0  0  0  0
  -10.8283    5.1970   -3.6117 C   0  0  0  0  0  0  0  0  0  0  0  0
  -12.1571    4.9851   -2.9490 C   0  0  0  0  0  0  0  0  0  0  0  0
  -10.3310    6.5784   -3.3046 C   0  0  0  0  0  0  0  0  0  0  0  0
  -10.5905    2.6904   -4.8878 C   0  0  0  0  0  0  0  0  0  0  0  0
  -11.6951    2.2772   -5.2937 O   0  0  0  0  0  0  0  0  0  0  0  0
   -9.5273    3.0639   -5.8342 N   0  0  0  0  0  0  0  0  0  0  0  0
   -9.7231    2.9347   -7.2788 C   0  0  0  0  0  0  0  0  0  0  0  0
   -8.4354    3.0166   -8.0666 C   0  0  0  0  0  0  0  0  0  0  0  0
   -8.3736    3.7971   -9.0370 O   0  0  0  0  0  0  0  0  0  0  0  0
  -10.6292    4.0332   -7.7505 C   0  0  0  0  0  0  0  0  0  0  0  0
  1  2  1  0
  1 85  1  0
  2  3  1  0
  2  4  1  0
  4  5  2  0
  4  6  1  0
  6  7  1  0
  6  8  1  0
  8  9  1  0
  8 13  1  0
  9 10  1  0
 10 11  1  0
 10 12  1  0
 13 14  2  0
 13 15  1  0
 15 16  1  0
 15 17  1  0
 17 18  1  0
 17 22  1  0
 18 19  1  0
 19 20  1  0
 19 21  1  0
 22 23  2  0
 22 24  1  0
 24 25  1  0
 24 26  1  0
 26 27  1  0
 26 30  1  0
 27 28  1  0
 27 29  1  0
 30 31  2  0
 30 32  1  0
 32 33  1  0
 32 34  1  0
 34 35  1  0
 34 37  1  0
 35 36  2  0
 35 45  1  0
 37 38  1  0
 37 39  1  0
 39 40  1  0
 39 41  1  0
 41 42  1  0
 42 43  2  0
 43 44  1  0
 45 46  1  0
 46 47  1  0
 46 49  1  0
 47 48  2  0
 47 53  1  0
 49 50  1  0
 50 51  1  0
 51 52  1  0
 53 54  1  0
 53 57  1  0
 54 55  1  0
 55 56  2  0
 55 58  1  0
 58 59  1  0
 58 60  1  0
 60 61  1  0
 60 65  1  0
 61 62  1  0
 62 63  1  0
 62 64  1  0
 65 66  2  0
 65 67  1  0
 67 68  1  0
 68 69  1  0
 68 71  1  0
 69 70  2  0
 69 74  1  0
 71 72  1  0
 71 73  1  0
 74 75  1  0
 74 76  1  0
 76 77  1  0
 76 81  1  0
 77 78  1  0
 78 79  1  0
 78 80  1  0
 81 82  2  0
 81 83  1  0
 83 84  1  0
 84 85  1  0
 84 87  1  0
 85 86  2  0
M  END
>  <i_m_stars>  (15) 
3

>  <s_m_entry_id>  (15) 
1057

>  <s_m_entry_name>  (15) 
208refs.147

>  <s_m_Source_Path>  (15) 
/nfs/zone2/sindhikara/master/src/validation_scripts/tests/prime/macrocycle/BMS208

>  <s_m_Source_File>  (15) 
208refs.maegz

>  <i_m_Source_File_Index>  (15) 
147

>  <r_lp_tautomer_probability>  (15) 
1

>  <r_epik_Ionization_Penalty>  (15) 
  0.0000

>  <r_epik_Ionization_Penalty_Charging>  (15) 
  0.0000

>  <r_epik_Ionization_Penalty_Neutral>  (15) 
  0.0000

>  <r_epik_State_Penalty>  (15) 
  0.0000

>  <i_epik_Tot_Q>  (15) 
0

>  <i_lp_mmshare_version>  (15) 
32003

>  <r_pdb_PDB_RESOLUTION>  (15) 
1.76

>  <s_user_comment>  (15) 
cyclosporin-related; 2 alt positions of propanol

>  <r_f3d_energy>  (15) 
1060093.99939421

>  <s_user_Group>  (15) 
A1

>  <s_user_mc_backbone_quality>  (15) 
B

>  <s_user_overall_b-factors>  (15) 
B

>  <s_user_ligand_name>  (15) 
HYDROXYNORVALINE)-2-CYCLOSPORIN:

>  <s_user_mc_bb_conf_conserved>  (15) 
A

>  <s_user_rep>  (15) 
1

>  <s_m_subgroup_title>  (15) 
208refs

>  <s_m_subgroupid>  (15) 
208refs

>  <b_m_subgroup_collapsed>  (15) 
0

$$$$
1MRL
     RDKit          3D

 48 50  0  0  1  0  0  0  0  0999 V2000
   26.0830   52.8290   56.9690 O   0  0  0  0  0  0  0  0  0  0  0  0
   26.5630   54.0940   56.6410 C   0  0  0  0  0  0  0  0  0  0  0  0
   25.9730   55.2900   57.2510 N   0  0  0  0  0  0  0  0  0  0  0  0
   26.8120   56.3570   56.7010 C   0  0  0  0  0  0  0  0  0  0  0  0
   27.9180   56.5330   57.7470 C   0  0  0  0  0  0  0  0  0  0  0  0
   27.4330   55.8050   58.9890 C   0  0  0  0  0  0  0  0  0  0  0  0
   27.7720   56.8120   60.4140 S   0  0  0  0  0  0  0  0  0  0  0  0
   27.1440   58.4290   60.1010 O   0  0  0  0  0  0  0  0  0  0  0  0
   27.0210   56.1110   61.8450 O   0  0  0  0  0  0  0  0  0  0  0  0
   29.5420   56.8570   60.6360 C   0  0  0  0  0  0  0  0  0  0  0  0
   30.1530   57.8870   59.6940 C   0  0  0  0  0  0  0  0  0  0  0  0
   30.6840   58.8930   60.5980 N   0  0  0  0  0  0  0  0  0  0  0  0
   32.1140   59.1850   60.6040 C   0  0  0  0  0  0  0  0  0  0  0  0
   32.4740   60.0820   59.4370 C   0  0  0  0  0  0  0  0  0  0  0  0
   29.7720   59.5790   61.5050 C   0  0  0  0  0  0  0  0  0  0  0  0
   30.1820   61.0230   61.6910 C   0  0  0  0  0  0  0  0  0  0  0  0
   25.9610   55.7490   58.6570 C   0  0  0  0  0  0  0  0  0  0  0  0
   27.6850   54.4130   55.6890 C   0  0  0  0  0  0  0  0  0  0  0  0
   28.5250   55.6850   55.5030 C   0  0  0  0  0  0  0  0  0  0  0  0
   29.1140   55.5760   54.1920 O   0  0  0  0  0  0  0  0  0  0  0  0
   27.6920   53.6570   54.4930 N   0  0  0  0  0  0  0  0  0  0  0  0
   28.6030   54.3590   53.6440 C   0  0  0  0  0  0  0  0  0  0  0  0
   28.8390   53.7380   52.2940 C   0  0  0  0  0  0  0  0  0  0  0  0
   27.5720   52.8840   52.2770 C   0  0  0  0  0  0  0  0  0  0  0  0
   27.4570   51.8280   53.2360 O   0  0  0  0  0  0  0  0  0  0  0  0
   26.3850   53.1450   51.3550 C   0  0  0  0  0  0  0  0  0  0  0  0
   25.1640   52.3790   51.8720 C   0  0  0  0  0  0  0  0  0  0  0  0
   24.2350   52.1600   50.8080 O   0  0  0  0  0  0  0  0  0  0  0  0
   24.4900   53.1940   52.9670 C   0  0  0  0  0  0  0  0  0  0  0  0
   23.5400   52.4040   53.8630 C   0  0  0  0  0  0  0  0  0  0  0  0
   23.2890   50.9170   53.6410 C   0  0  0  0  0  0  0  0  0  0  0  0
   22.5770   53.2370   54.6940 C   0  0  0  0  0  0  0  0  0  0  0  0
   21.5040   52.4310   55.4070 C   0  0  0  0  0  0  0  0  0  0  0  0
   20.6830   53.4480   56.1800 C   0  0  0  0  0  0  0  0  0  0  0  0
   21.6340   54.2100   56.9550 N   0  0  0  0  0  0  0  0  0  0  0  0
   21.2590   54.8600   58.1860 C   0  0  0  0  0  0  0  0  0  0  0  0
   19.8890   54.8050   58.5780 O   0  0  0  0  0  0  0  0  0  0  0  0
   22.0710   56.0560   58.6320 C   0  0  0  0  0  0  0  0  0  0  0  0
   21.8750   56.2530   60.1240 C   0  0  0  0  0  0  0  0  0  0  0  0
   22.7010   57.4600   60.5310 C   0  0  0  0  0  0  0  0  0  0  0  0
   21.9080   58.2520   61.5710 C   0  0  0  0  0  0  0  0  0  0  0  0
   24.1690   57.1680   60.9260 C   0  0  0  0  0  0  0  0  0  0  0  0
   24.4700   57.6180   62.3630 C   0  0  0  0  0  0  0  0  0  0  0  0
   24.9880   59.0520   62.4500 C   0  0  0  0  0  0  0  0  0  0  0  0
   23.2890   57.4020   63.3060 C   0  0  0  0  0  0  0  0  0  0  0  0
   24.5800   55.7860   60.8750 O   0  0  0  0  0  0  0  0  0  0  0  0
   24.9460   55.1390   59.6360 C   0  0  0  0  0  0  0  0  0  0  0  0
   24.3040   53.8980   59.3200 O   0  0  0  0  0  0  0  0  0  0  0  0
  1  2  2  0
  2  3  1  0
  2 18  1  0
  3  4  1  0
  3 17  1  0
  4  5  1  0
  5  6  1  0
  6  7  1  0
  6 17  1  0
  7  8  2  0
  7  9  2  0
  7 10  1  0
 10 11  1  0
 11 12  1  0
 12 13  1  0
 12 15  1  0
 13 14  1  0
 15 16  1  0
 17 47  1  0
 18 19  2  0
 18 21  1  0
 19 20  1  0
 20 22  1  0
 21 22  2  0
 22 23  1  0
 23 24  1  0
 24 25  2  0
 24 26  1  0
 26 27  1  0
 27 28  1  0
 27 29  1  0
 29 30  1  0
 30 31  1  0
 30 32  1  0
 32 33  1  0
 33 34  1  0
 34 35  1  0
 35 36  1  0
 36 37  2  0
 36 38  1  0
 38 39  1  0
 39 40  1  0
 40 41  1  0
 40 42  1  0
 42 43  1  0
 42 46  1  0
 43 44  1  0
 43 45  1  0
 46 47  1  0
 47 48  2  0
M  CHG  1  12   1
M  END
>  <s_m_entry_id>  (16) 
1071

>  <s_m_entry_name>  (16) 
1mrl.1

>  <s_pdb_PDB_TITLE>  (16) 
CRYSTAL STRUCTURE OF STREPTOGRAMIN A ACETYLTRANSFERASE WITH DALFOPRISTIN

>  <s_m_Source_Path>  (16) 
/nfs/zone2/sindhikara/master/src/validation_scripts/tests/prime/macrocycle/BMS208

>  <s_m_Source_File>  (16) 
208refs.maegz

>  <i_m_Source_File_Index>  (16) 
161

>  <s_pdb_PDB_ID>  (16) 
1MRL

>  <r_pdb_PDB_R>  (16) 
0.271

>  <r_pdb_PDB_Rfree>  (16) 
0.304

>  <r_pdb_PDB_RESOLUTION>  (16) 
2.8

>  <s_m_Molecular_formula>  (16) 
C34H57N4O9S1

>  <r_m_Molecular_weight>  (16) 
697.91879

>  <i_m_Number_of_heavy_atoms>  (16) 
48

>  <i_m_Number_of_atoms>  (16) 
105

>  <s_user_Group>  (16) 
Example PDB

>  <s_user_Preparation>  (16) 
reference

>  <s_user_Primary_PMID>  (16) 
12771141                                                     

>  <s_user_Primary_DOI>  (16) 
10.1074/JBC.M303766200     

>  <s_user_Unique_SMILES>  (16) 
CC[NH+](CC)CCS(=O)(=O)[C@@H]1CCN(C2=O)[C@H]1C(=O)O[C@H](C(C)C)[C@H](C)CCC(=O)NCCC[C@@H](C)C[C@@H](O)CC(=O)Cc(n3)occ23

>  <s_user_Source>  (16) 
PDB

>  <s_user_InChI1S_Key>  (16) 
InChIKey=FYEVQQIPWPNPSJ-BZUOZDSESA-N

>  <s_user_Sample>  (16) 
TEST

>  <s_user_Name>  (16) 
streptogramin-like

>  <s_user_Microstate_Comment>  (16) 
dolfopristin has unstat. prolyl ring

>  <s_m_subgroup_title>  (16) 
208refs

>  <s_m_subgroupid>  (16) 
208refs

>  <b_m_subgroup_collapsed>  (16) 
0

$$$$
1NMK
     RDKit          3D

 53 55  0  0  1  0  0  0  0  0999 V2000
   13.8062   62.8482   36.7143 C   0  0  0  0  0  0  0  0  0  0  0  0
   13.4692   63.6552   37.9723 C   0  0  0  0  0  0  0  0  0  0  0  0
   13.1232   64.8122   37.7513 O   0  0  0  0  0  0  0  0  0  0  0  0
   13.5792   63.0772   39.3543 C   0  0  0  0  0  0  0  0  0  0  0  0
   14.1232   64.0762   40.3653 C   0  0  0  0  0  0  0  0  0  0  0  0
   14.0852   63.4992   41.7873 C   0  0  0  0  0  0  0  0  0  0  0  0
   15.0322   62.2992   41.7213 C   0  0  0  0  0  0  0  0  0  0  0  0
   14.5512   61.1942   41.6373 O   0  0  0  0  0  0  0  0  0  0  0  0
   16.3462   62.4612   41.7503 N   0  0  0  0  0  0  0  0  0  0  0  0
   17.1852   61.2782   41.7363 C   0  0  0  0  0  0  0  0  0  0  0  0
   18.2992   61.3512   40.6473 C   0  0  0  0  0  0  0  0  0  0  0  0
   17.6882   61.1432   39.2353 C   0  0  0  0  0  0  0  0  0  0  0  0
   19.2782   60.1922   40.8403 C   0  0  0  0  0  0  0  0  0  0  0  0
   17.8142   61.3292   43.1213 C   0  0  0  0  0  0  0  0  0  0  0  0
   17.5282   60.3752   43.9943 N   0  0  0  0  0  0  0  0  0  0  0  0
   17.9312   60.4612   45.4053 C   0  0  0  0  0  0  0  0  0  0  0  0
   16.7112   59.8942   46.1563 C   0  0  0  0  0  0  0  0  0  0  0  0
   16.8292   59.7632   47.6373 C   0  0  0  0  0  0  0  0  0  0  0  0
   16.3852   60.7832   48.4643 C   0  0  0  0  0  0  0  0  0  0  0  0
   16.5012   60.7062   49.8393 C   0  0  0  0  0  0  0  0  0  0  0  0
   17.0252   59.5592   50.4253 C   0  0  0  0  0  0  0  0  0  0  0  0
   17.4342   58.5212   49.5933 C   0  0  0  0  0  0  0  0  0  0  0  0
   17.9382   57.3802   50.1293 O   0  0  0  0  0  0  0  0  0  0  0  0
   17.3522   58.6172   48.2243 C   0  0  0  0  0  0  0  0  0  0  0  0
   19.2342   59.6952   45.7253 C   0  0  0  0  0  0  0  0  0  0  0  0
   19.4172   58.5872   45.2413 O   0  0  0  0  0  0  0  0  0  0  0  0
   20.1562   60.3042   46.5353 N   0  0  0  0  0  0  0  0  0  0  0  0
   21.2772   59.5622   47.1343 C   0  0  0  0  0  0  0  0  0  0  0  0
   21.2512   59.4602   48.6733 C   0  0  0  0  0  0  0  0  0  0  0  0
   20.9052   60.8052   49.2933 C   0  0  0  0  0  0  0  0  0  0  0  0
   19.6782   61.4582   48.6353 C   0  0  0  0  0  0  0  0  0  0  0  0
   19.8332   61.5222   47.1583 N   0  0  0  0  0  0  0  0  0  0  0  0
   19.5292   62.8482   49.2053 C   0  0  0  0  0  0  0  0  0  0  0  0
   19.9802   63.8232   48.6333 O   0  0  0  0  0  0  0  0  0  0  0  0
   18.8822   62.8362   50.3593 O   0  0  0  0  0  0  0  0  0  0  0  0
   18.6422   64.1012   51.0093 C   0  0  0  0  0  0  0  0  0  0  0  0
   17.2272   64.6552   50.7053 C   0  0  0  0  0  0  0  0  0  0  0  0
   17.0312   65.0702   49.2593 C   0  0  0  0  0  0  0  0  0  0  0  0
   15.9082   64.8282   48.6273 C   0  0  0  0  0  0  0  0  0  0  0  0
   15.7502   65.1912   47.3693 C   0  0  0  0  0  0  0  0  0  0  0  0
   14.6122   64.9392   46.7613 C   0  0  0  0  0  0  0  0  0  0  0  0
   14.4722   65.3602   45.2803 C   0  0  0  0  0  0  0  0  0  0  0  0
   13.4192   66.3002   45.0673 O   0  0  0  0  0  0  0  0  0  0  0  0
   14.3272   64.1202   44.3723 C   0  0  0  0  0  0  0  0  0  0  0  0
   15.4652   63.1762   44.7773 C   0  0  0  0  0  0  0  0  0  0  0  0
   14.5342   64.5642   42.8723 C   0  0  0  0  0  0  0  0  0  0  0  0
   15.9102   64.9082   42.6433 O   0  0  0  0  0  0  0  0  0  0  0  0
   18.7782   63.8202   52.4803 C   0  0  0  0  0  0  0  0  0  0  0  0
   18.3292   62.4522   52.9413 C   0  0  0  0  0  0  0  0  0  0  0  0
   19.2002   64.6912   53.3163 C   0  0  0  0  0  0  0  0  0  0  0  0
   19.2632   64.2912   54.7623 C   0  0  0  0  0  0  0  0  0  0  0  0
   19.8182   65.3532   55.4563 O   0  0  0  0  0  0  0  0  0  0  0  0
   18.5972   62.2332   43.4253 O   0  0  0  0  0  0  0  0  0  0  0  0
  1  2  1  0
  2  3  2  0
  2  4  1  0
  4  5  1  0
  5  6  1  0
  6  7  1  0
  6 46  1  0
  7  8  2  0
  7  9  1  0
  9 10  1  0
 10 11  1  0
 10 14  1  0
 11 12  1  0
 11 13  1  0
 14 15  1  0
 14 53  2  0
 15 16  1  0
 16 17  1  0
 16 25  1  0
 17 18  1  0
 18 19  2  0
 18 24  1  0
 19 20  1  0
 20 21  2  0
 21 22  1  0
 22 23  1  0
 22 24  2  0
 25 26  2  0
 25 27  1  0
 27 28  1  0
 27 32  1  0
 28 29  1  0
 29 30  1  0
 30 31  1  0
 31 32  1  0
 31 33  1  0
 33 34  2  0
 33 35  1  0
 35 36  1  0
 36 37  1  0
 36 48  1  0
 37 38  1  0
 38 39  2  0
 39 40  1  0
 40 41  2  0
 41 42  1  0
 42 43  1  0
 42 44  1  0
 44 45  1  0
 44 46  1  0
 46 47  1  0
 48 49  1  0
 48 50  2  0
 50 51  1  0
 51 52  1  0
M  END
>  <s_m_entry_id>  (17) 
1072

>  <s_m_entry_name>  (17) 
1nmk.1

>  <s_pdb_PDB_TITLE>  (17) 
THE SANGLIFEHRIN-CYCLOPHILIN INTERACTION: DEGRADATION WORK, SYNTHETIC MACROCYCLIC ANALOGUES, X-RAY CRYSTAL STRUCTURE AND BINDING DATA

>  <s_m_Source_Path>  (17) 
/nfs/zone2/sindhikara/master/src/validation_scripts/tests/prime/macrocycle/BMS208

>  <s_m_Source_File>  (17) 
208refs.maegz

>  <i_m_Source_File_Index>  (17) 
162

>  <s_pdb_PDB_ID>  (17) 
1NMK

>  <r_pdb_PDB_R>  (17) 
0.163

>  <r_pdb_PDB_Rfree>  (17) 
0.189

>  <r_pdb_PDB_RESOLUTION>  (17) 
2.1

>  <s_m_Molecular_formula>  (17) 
C39H56N4O10

>  <r_m_Molecular_weight>  (17) 
740.90197

>  <i_m_Number_of_heavy_atoms>  (17) 
53

>  <i_m_Number_of_atoms>  (17) 
109

>  <s_user_Group>  (17) 
Example PDB

>  <s_user_Preparation>  (17) 
reference

>  <s_user_Primary_PMID>  (17) 
12656618                                                     

>  <s_user_Primary_DOI>  (17) 
10.1021/JA021327Y      

>  <s_user_Unique_SMILES>  (17) 
OC/C=C(\C)[C@@H](OC1=O)C/C=C/C=C/[C@H](O)[C@H](C)[C@@H](O)[C@@H](CCC(=O)C)C(=O)N[C@@H](C(C)C)C(=O)N[C@H](C(=O)N(N2)CCC[C@@H]12)Cc3cc(O)ccc3

>  <s_user_Source>  (17) 
PDB

>  <s_user_InChI1S_Key>  (17) 
InChIKey=WZVMDDRRINUPRQ-APBCKSDASA-N

>  <s_user_Sample>  (17) 
TRAIN

>  <s_user_Name>  (17) 
Sanglifehrin-like

>  <s_user_Microstate_Comment>  (17) 
sanglifehrin A extends from a.n 51

>  <s_m_subgroup_title>  (17) 
208refs

>  <s_m_subgroupid>  (17) 
208refs

>  <b_m_subgroup_collapsed>  (17) 
0

$$$$
1NSG
     RDKit          3D

 66 69  0  0  1  0  0  0  0  0999 V2000
   19.5657   61.4089   49.6743 C   0  0  0  0  0  0  0  0  0  0  0  0
   18.5677   62.0799   48.8823 O   0  0  0  0  0  0  0  0  0  0  0  0
   20.7207   61.4019   49.2473 O   0  0  0  0  0  0  0  0  0  0  0  0
   19.2447   60.7589   51.0193 C   0  0  0  0  0  0  0  0  0  0  0  0
   19.8077   59.3399   51.1183 C   0  0  0  0  0  0  0  0  0  0  0  0
   19.0707   58.3039   50.2903 C   0  0  0  0  0  0  0  0  0  0  0  0
   17.6007   58.3149   50.6243 C   0  0  0  0  0  0  0  0  0  0  0  0
   17.0297   59.7009   50.4293 C   0  0  0  0  0  0  0  0  0  0  0  0
   17.8077   60.5859   51.2873 N   0  0  0  0  0  0  0  0  0  0  0  0
   15.8557   61.3619   52.4933 C   0  0  0  0  0  0  0  0  0  0  0  0
   17.7957   62.4159   52.5873 O   0  0  0  0  0  0  0  0  0  0  0  0
   14.7777   62.2049   51.8103 C   0  0  0  0  0  0  0  0  0  0  0  0
   15.5537   60.5559   53.3803 O   0  0  0  0  0  0  0  0  0  0  0  0
   15.1917   63.6939   51.7993 C   0  0  0  0  0  0  0  0  0  0  0  0
   14.7297   61.7259   50.4883 O   0  0  0  0  0  0  0  0  0  0  0  0
   13.5117   62.0629   52.4713 O   0  0  0  0  0  0  0  0  0  0  0  0
   14.2527   64.4919   50.8873 C   0  0  0  0  0  0  0  0  0  0  0  0
   13.8897   63.7889   49.5833 C   0  0  0  0  0  0  0  0  0  0  0  0
   13.7137   62.2709   49.7153 C   0  0  0  0  0  0  0  0  0  0  0  0
   13.8477   61.5999   48.3513 C   0  0  0  0  0  0  0  0  0  0  0  0
   12.7607   61.9129   47.3223 C   0  0  0  0  0  0  0  0  0  0  0  0
   13.0567   61.1069   46.0753 C   0  0  0  0  0  0  0  0  0  0  0  0
   11.5197   61.5319   47.7893 O   0  0  0  0  0  0  0  0  0  0  0  0
   13.4007   61.7059   44.9473 C   0  0  0  0  0  0  0  0  0  0  0  0
   13.7587   61.0299   43.7043 C   0  0  0  0  0  0  0  0  0  0  0  0
   13.8677   61.7269   42.5873 C   0  0  0  0  0  0  0  0  0  0  0  0
   14.2327   61.0859   41.3313 C   0  0  0  0  0  0  0  0  0  0  0  0
   15.0027   61.6779   40.4493 C   0  0  0  0  0  0  0  0  0  0  0  0
   15.3847   61.0069   39.1543 C   0  0  0  0  0  0  0  0  0  0  0  0
   16.8937   61.0849   38.9233 C   0  0  0  0  0  0  0  0  0  0  0  0
   17.7857   60.7249   40.1133 C   0  0  0  0  0  0  0  0  0  0  0  0
   19.0977   61.4749   40.0063 C   0  0  0  0  0  0  0  0  0  0  0  0
   19.2017   62.8649   40.6233 C   0  0  0  0  0  0  0  0  0  0  0  0
   20.0387   60.9949   39.3863 O   0  0  0  0  0  0  0  0  0  0  0  0
   19.5547   62.7719   42.1223 C   0  0  0  0  0  0  0  0  0  0  0  0
   20.2467   63.4769   39.9423 O   0  0  0  0  0  0  0  0  0  0  0  0
   18.4187   62.3329   43.0253 C   0  0  0  0  0  0  0  0  0  0  0  0
   20.6267   61.8439   42.3103 O   0  0  0  0  0  0  0  0  0  0  0  0
   18.3357   61.1559   43.6393 C   0  0  0  0  0  0  0  0  0  0  0  0
   17.2577   60.8079   44.6373 C   0  0  0  0  0  0  0  0  0  0  0  0
   17.7927   61.0219   46.0533 C   0  0  0  0  0  0  0  0  0  0  0  0
   17.6727   62.3989   46.6813 C   0  0  0  0  0  0  0  0  0  0  0  0
   18.3127   60.0979   46.6793 O   0  0  0  0  0  0  0  0  0  0  0  0
   18.8137   62.7029   47.6563 C   0  0  0  0  0  0  0  0  0  0  0  0
   18.9097   64.2229   47.9233 C   0  0  0  0  0  0  0  0  0  0  0  0
   19.4777   64.9359   46.6993 C   0  0  0  0  0  0  0  0  0  0  0  0
   20.7857   64.4079   46.1103 C   0  0  0  0  0  0  0  0  0  0  0  0
   21.0777   65.1849   44.8243 C   0  0  0  0  0  0  0  0  0  0  0  0
   22.4677   65.1039   44.1753 C   0  0  0  0  0  0  0  0  0  0  0  0
   23.6107   65.1689   45.2383 C   0  0  0  0  0  0  0  0  0  0  0  0
   22.5657   66.2299   43.3613 O   0  0  0  0  0  0  0  0  0  0  0  0
   23.2967   64.3029   46.4623 C   0  0  0  0  0  0  0  0  0  0  0  0
   24.8347   64.6879   44.6713 O   0  0  0  0  0  0  0  0  0  0  0  0
   21.9457   64.5789   47.0873 C   0  0  0  0  0  0  0  0  0  0  0  0
   15.1467   64.2729   53.2103 C   0  0  0  0  0  0  0  0  0  0  0  0
   12.9417   59.5899   46.3033 C   0  0  0  0  0  0  0  0  0  0  0  0
   14.6347   61.6919   38.0263 C   0  0  0  0  0  0  0  0  0  0  0  0
   18.0377   59.2299   40.1613 C   0  0  0  0  0  0  0  0  0  0  0  0
   17.3727   63.4169   43.1173 C   0  0  0  0  0  0  0  0  0  0  0  0
   16.8427   59.3599   44.4343 C   0  0  0  0  0  0  0  0  0  0  0  0
   17.5387   64.7939   48.2643 C   0  0  0  0  0  0  0  0  0  0  0  0
   10.4007   62.3099   47.5323 C   0  0  0  0  0  0  0  0  0  0  0  0
   19.8977   64.4309   39.0063 C   0  0  0  0  0  0  0  0  0  0  0  0
   21.7187   66.3229   42.2553 C   0  0  0  0  0  0  0  0  0  0  0  0
    9.3487   61.2359   47.5263 C   0  0  0  0  0  0  0  0  0  0  0  0
   17.1927   61.4619   52.1013 C   0  0  0  0  0  0  0  0  0  0  0  0
  1  2  1  0
  1  3  2  0
  1  4  1  0
  2 44  1  0
  4  5  1  0
  4  9  1  0
  5  6  1  0
  6  7  1  0
  7  8  1  0
  8  9  1  0
  9 66  1  0
 10 12  1  0
 10 13  2  0
 10 66  1  0
 11 66  2  0
 12 14  1  0
 12 15  1  0
 12 16  1  0
 14 17  1  0
 14 55  1  0
 15 19  1  0
 17 18  1  0
 18 19  1  0
 19 20  1  0
 20 21  1  0
 21 22  1  0
 21 23  1  0
 22 24  2  0
 22 56  1  0
 23 62  1  0
 24 25  1  0
 25 26  2  0
 26 27  1  0
 27 28  2  0
 28 29  1  0
 29 30  1  0
 29 57  1  0
 30 31  1  0
 31 32  1  0
 31 58  1  0
 32 33  1  0
 32 34  2  0
 33 35  1  0
 33 36  1  0
 35 37  1  0
 35 38  1  0
 36 63  1  0
 37 39  2  0
 37 59  1  0
 39 40  1  0
 40 41  1  0
 40 60  1  0
 41 42  1  0
 41 43  2  0
 42 44  1  0
 44 45  1  0
 45 46  1  0
 45 61  1  0
 46 47  1  0
 47 48  1  0
 47 54  1  0
 48 49  1  0
 49 50  1  0
 49 51  1  0
 50 52  1  0
 50 53  1  0
 51 64  1  0
 52 54  1  0
 62 65  1  0
M  END
>  <s_m_entry_id>  (18) 
1073

>  <s_m_entry_name>  (18) 
1nsg.1

>  <s_pdb_PDB_TITLE>  (18) 
THE STRUCTURE OF THE IMMUNOPHILIN-IMMUNOSUPPRESSANT FKBP12- RAPAMYCIN COMPLEX INTERACTING WITH HUMAN FRAP

>  <s_m_Source_Path>  (18) 
/nfs/zone2/sindhikara/master/src/validation_scripts/tests/prime/macrocycle/BMS208

>  <s_m_Source_File>  (18) 
208refs.maegz

>  <i_m_Source_File_Index>  (18) 
163

>  <s_pdb_PDB_ID>  (18) 
1NSG

>  <r_pdb_PDB_R>  (18) 
0.196

>  <r_pdb_PDB_Rfree>  (18) 
0.265

>  <r_pdb_PDB_RESOLUTION>  (18) 
2.2

>  <s_m_Molecular_formula>  (18) 
C52H81N1O13

>  <r_m_Molecular_weight>  (18) 
928.22427

>  <i_m_Number_of_heavy_atoms>  (18) 
66

>  <i_m_Number_of_atoms>  (18) 
147

>  <s_user_Group>  (18) 
Example PDB

>  <s_user_Preparation>  (18) 
reference

>  <s_user_Primary_PMID>  (18) 
10089303                                                     

>  <s_user_Primary_DOI>  (18) 
10.1107/S0907444998014747     

>  <s_user_Unique_SMILES>  (18) 
C1C[C@@H](O)[C@H](OC)C[C@@H]1C[C@@H](C)[C@@H](OC(=O)[C@H]2N(C(=O)C3=O)CCCC2)CC(=O)[C@H](C)/C=C(\C)[C@@H](O)[C@@H](OC)C(=O)[C@H](C)C[C@H](C)/C=C/C=C/C=C(\C)[C@@H](OCC)C[C@@H](O4)CC[C@@H](C)[C@]34O

>  <s_user_Source>  (18) 
PDB

>  <s_user_InChI1S_Key>  (18) 
InChIKey=GPZGXSFHPLUMHE-JQEUAWNDSA-N

>  <s_user_Sample>  (18) 
TRAIN

>  <s_user_Name>  (18) 
C49-METHYL RAPAMYCIN

>  <s_user_Microstate_Comment>  (18) 
keto-amide, not iminol

>  <s_m_subgroup_title>  (18) 
208refs

>  <s_m_subgroupid>  (18) 
208refs

>  <b_m_subgroup_collapsed>  (18) 
0

$$$$
1NT1
     RDKit          3D

 35 38  0  0  1  0  0  0  0  0999 V2000
   14.0545   65.2993   45.1526 C   0  0  0  0  0  0  0  0  0  0  0  0
   13.3595   64.1703   45.5426 C   0  0  0  0  0  0  0  0  0  0  0  0
   12.4105   64.2293   46.6006 C   0  0  0  0  0  0  0  0  0  0  0  0
   12.2395   65.4153   47.3156 C   0  0  0  0  0  0  0  0  0  0  0  0
   13.0305   66.5253   46.9956 C   0  0  0  0  0  0  0  0  0  0  0  0
   13.9225   66.4843   45.8936 C   0  0  0  0  0  0  0  0  0  0  0  0
   14.8935   65.2603   43.8976 C   0  0  0  0  0  0  0  0  0  0  0  0
   16.3325   65.1223   44.1616 N   0  0  0  0  0  0  0  0  0  0  0  0
   16.9415   63.9403   43.8776 C   0  0  0  0  0  0  0  0  0  0  0  0
   18.4375   63.9213   44.1116 C   0  0  0  0  0  0  0  0  0  0  0  0
   16.3695   62.9003   43.5356 O   0  0  0  0  0  0  0  0  0  0  0  0
   13.6635   62.9583   44.9186 O   0  0  0  0  0  0  0  0  0  0  0  0
   19.1895   63.7683   42.7766 C   0  0  0  0  0  0  0  0  0  0  0  0
   20.5135   63.0903   43.1526 C   0  0  0  0  0  0  0  0  0  0  0  0
   20.0125   62.0533   44.1646 C   0  0  0  0  0  0  0  0  0  0  0  0
   18.8605   62.6863   44.7846 N   0  0  0  0  0  0  0  0  0  0  0  0
   18.1945   62.2533   45.8826 C   0  0  0  0  0  0  0  0  0  0  0  0
   18.6905   60.9343   46.4506 C   0  0  0  0  0  0  0  0  0  0  0  0
   17.5745   59.9883   46.5016 N   0  0  0  0  0  0  0  0  0  0  0  0
   17.3715   59.2643   45.3706 C   0  0  0  0  0  0  0  0  0  0  0  0
   18.1935   59.1633   44.4386 O   0  0  0  0  0  0  0  0  0  0  0  0
   15.9825   58.6503   45.2766 C   0  0  0  0  0  0  0  0  0  0  0  0
   15.2185   59.3343   44.1266 C   0  0  0  0  0  0  0  0  0  0  0  0
   14.6785   60.6533   44.5236 N   0  0  0  0  0  0  0  0  0  0  0  0
   13.4495   60.6023   45.0826 C   0  0  0  0  0  0  0  0  0  0  0  0
   12.8015   59.5683   45.2436 O   0  0  0  0  0  0  0  0  0  0  0  0
   12.9125   61.9303   45.5226 C   0  0  0  0  0  0  0  0  0  0  0  0
   17.1805   62.7933   46.3456 O   0  0  0  0  0  0  0  0  0  0  0  0
   19.2785   61.1923   47.8526 C   0  0  0  0  0  0  0  0  0  0  0  0
   19.5455   59.8923   48.6196 C   0  0  0  0  0  0  0  0  0  0  0  0
   20.1505   60.1923   50.0016 C   0  0  0  0  0  0  0  0  0  0  0  0
   21.4475   61.0033   49.8416 C   0  0  0  0  0  0  0  0  0  0  0  0
   21.1705   62.3153   49.0966 C   0  0  0  0  0  0  0  0  0  0  0  0
   20.5575   62.0243   47.7276 C   0  0  0  0  0  0  0  0  0  0  0  0
   12.9355   67.9403   47.9986 Cl  0  0  0  0  0  0  0  0  0  0  0  0
  1  2  1  0
  1  6  2  0
  1  7  1  0
  2  3  2  0
  2 12  1  0
  3  4  1  0
  4  5  2  0
  5  6  1  0
  5 35  1  0
  7  8  1  0
  8  9  1  0
  9 10  1  0
  9 11  2  0
 10 13  1  0
 10 16  1  0
 12 27  1  0
 13 14  1  0
 14 15  1  0
 15 16  1  0
 16 17  1  0
 17 18  1  0
 17 28  2  0
 18 19  1  0
 18 29  1  0
 19 20  1  0
 20 21  2  0
 20 22  1  0
 22 23  1  0
 23 24  1  0
 24 25  1  0
 25 26  2  0
 25 27  1  0
 29 30  1  0
 29 34  1  0
 30 31  1  0
 31 32  1  0
 32 33  1  0
 33 34  1  0
M  END
>  <s_m_entry_id>  (19) 
1074

>  <s_m_entry_name>  (19) 
1nt1.1

>  <s_pdb_PDB_TITLE>  (19) 
THROMBIN IN COMPLEX WITH SELECTIVE MACROCYCLIC INHIBITOR

>  <s_m_Source_Path>  (19) 
/nfs/zone2/sindhikara/master/src/validation_scripts/tests/prime/macrocycle/BMS208

>  <s_m_Source_File>  (19) 
208refs.maegz

>  <i_m_Source_File_Index>  (19) 
164

>  <s_pdb_PDB_ID>  (19) 
1NT1

>  <r_pdb_PDB_R>  (19) 
0.19

>  <r_pdb_PDB_RESOLUTION>  (19) 
2

>  <s_m_Molecular_formula>  (19) 
C25H33Cl1N4O5

>  <r_m_Molecular_weight>  (19) 
505.01856

>  <i_m_Number_of_heavy_atoms>  (19) 
35

>  <i_m_Number_of_atoms>  (19) 
68

>  <s_user_Group>  (19) 
Example PDB

>  <s_user_Preparation>  (19) 
reference

>  <s_user_Primary_PMID>  (19) 
12873514                                                     

>  <s_user_Primary_DOI>  (19) 
10.1016/S0960-894X(03)00506-7    

>  <s_user_Unique_SMILES>  (19) 
C1CCCCC1[C@H](C(=O)N([C@@H]23)CCC2)NC(=O)CCNC(=O)COc4c(CNC3=O)cc(Cl)cc4

>  <s_user_Source>  (19) 
PDB

>  <s_user_InChI1S_Key>  (19) 
InChIKey=CNGULIMOMYJRBP-WMZHIEFXSA-N

>  <s_user_Sample>  (19) 
TRAIN

>  <s_m_subgroup_title>  (19) 
208refs

>  <s_m_subgroupid>  (19) 
208refs

>  <b_m_subgroup_collapsed>  (19) 
0

$$$$
1NWX
     RDKit          3D

 55 59  0  0  1  0  0  0  0  0999 V2000
   17.7057   56.5723   44.6250 O   0  0  0  0  0  0  0  0  0  0  0  0
   17.9557   57.3063   43.4150 C   0  0  0  0  0  0  0  0  0  0  0  0
   18.2557   58.7463   43.7500 C   0  0  0  0  0  0  0  0  0  0  0  0
   18.5487   59.4653   42.5760 O   0  0  0  0  0  0  0  0  0  0  0  0
   19.7537   58.9683   41.9210 C   0  0  0  0  0  0  0  0  0  0  0  0
   19.9967   59.9093   40.7260 C   0  0  0  0  0  0  0  0  0  0  0  0
   19.5427   57.5443   41.4900 C   0  0  0  0  0  0  0  0  0  0  0  0
   19.1597   56.7023   42.7040 C   0  0  0  0  0  0  0  0  0  0  0  0
   18.9507   55.2993   42.5290 N   0  0  0  0  0  0  0  0  0  0  0  0
   18.0867   54.9893   41.4270 C   0  0  0  0  0  0  0  0  0  0  0  0
   20.1877   54.5073   42.3650 C   0  0  0  0  0  0  0  0  0  0  0  0
   17.1067   59.3393   44.3030 O   0  0  0  0  0  0  0  0  0  0  0  0
   17.3307   60.4683   45.1560 C   0  0  0  0  0  0  0  0  0  0  0  0
   16.9427   60.0883   46.6260 C   0  0  0  0  0  0  0  0  0  0  0  0
   18.0917   60.0263   47.4880 C   0  0  0  0  0  0  0  0  0  0  0  0
   19.1347   59.5883   47.1170 O   0  0  0  0  0  0  0  0  0  0  0  0
   17.8537   60.4323   48.9990 C   0  0  0  0  0  0  0  0  0  0  0  0
   17.7457   61.9213   49.1240 C   0  0  0  0  0  0  0  0  0  0  0  0
   18.6787   62.6633   48.9690 O   0  0  0  0  0  0  0  0  0  0  0  0
   16.4997   62.2873   49.4670 O   0  0  0  0  0  0  0  0  0  0  0  0
   16.2547   63.6923   49.8880 C   0  0  0  0  0  0  0  0  0  0  0  0
   16.3407   63.6903   51.4490 C   0  0  0  0  0  0  0  0  0  0  0  0
   15.7887   62.5403   52.2130 C   0  0  0  0  0  0  0  0  0  0  0  0
   14.9777   64.1163   49.2290 C   0  0  0  0  0  0  0  0  0  0  0  0
   14.7247   65.4953   49.6400 O   0  0  0  0  0  0  0  0  0  0  0  0
   15.2247   66.4013   48.7310 C   0  0  0  0  0  0  0  0  0  0  0  0
   15.2107   67.6043   48.9850 O   0  0  0  0  0  0  0  0  0  0  0  0
   15.6267   65.6643   47.6580 N   0  0  0  0  0  0  0  0  0  0  0  0
   15.2187   64.2553   47.6480 C   0  0  0  0  0  0  0  0  0  0  0  0
   14.0317   63.9973   46.7020 C   0  0  0  0  0  0  0  0  0  0  0  0
   14.5087   64.1453   45.3150 C   0  0  0  0  0  0  0  0  0  0  0  0
   14.9597   65.1283   44.8630 O   0  0  0  0  0  0  0  0  0  0  0  0
   14.3007   62.8753   44.3800 C   0  0  0  0  0  0  0  0  0  0  0  0
   12.7987   62.5203   44.2360 C   0  0  0  0  0  0  0  0  0  0  0  0
   15.0757   61.5933   44.7630 C   0  0  0  0  0  0  0  0  0  0  0  0
   16.5617   61.6983   44.5870 C   0  0  0  0  0  0  0  0  0  0  0  0
   16.9757   62.8003   45.4800 O   0  0  0  0  0  0  0  0  0  0  0  0
   18.2377   63.4343   45.2590 C   0  0  0  0  0  0  0  0  0  0  0  0
   18.3007   64.7953   45.6830 C   0  0  0  0  0  0  0  0  0  0  0  0
   18.5427   65.7653   44.9490 C   0  0  0  0  0  0  0  0  0  0  0  0
   18.6367   67.1933   45.3550 C   0  0  0  0  0  0  0  0  0  0  0  0
   18.7957   67.6053   46.6630 C   0  0  0  0  0  0  0  0  0  0  0  0
   19.0207   68.9853   46.9800 C   0  0  0  0  0  0  0  0  0  0  0  0
   18.9867   69.8863   45.9160 C   0  0  0  0  0  0  0  0  0  0  0  0
   18.8107   69.5063   44.6000 N   0  0  0  0  0  0  0  0  0  0  0  0
   18.6637   68.1963   44.3690 C   0  0  0  0  0  0  0  0  0  0  0  0
   19.2077   71.1723   46.1470 C   0  0  0  0  0  0  0  0  0  0  0  0
   19.4077   71.5903   47.4390 C   0  0  0  0  0  0  0  0  0  0  0  0
   19.4357   70.6743   48.4770 C   0  0  0  0  0  0  0  0  0  0  0  0
   19.2487   69.4673   48.2510 C   0  0  0  0  0  0  0  0  0  0  0  0
   16.9067   61.9853   43.1600 C   0  0  0  0  0  0  0  0  0  0  0  0
   12.8837   64.9983   46.8080 C   0  0  0  0  0  0  0  0  0  0  0  0
   13.8167   63.2403   49.6360 C   0  0  0  0  0  0  0  0  0  0  0  0
   18.9787   59.9783   49.9500 C   0  0  0  0  0  0  0  0  0  0  0  0
   16.1787   58.8453   46.7980 C   0  0  0  0  0  0  0  0  0  0  0  0
  1  2  1  0
  2  3  1  0
  2  8  1  0
  3  4  1  0
  3 12  1  0
  4  5  1  0
  5  6  1  0
  5  7  1  0
  7  8  1  0
  8  9  1  0
  9 10  1  0
  9 11  1  0
 12 13  1  0
 13 14  1  0
 13 36  1  0
 14 15  1  0
 14 55  1  0
 15 16  2  0
 15 17  1  0
 17 18  1  0
 17 54  1  0
 18 19  2  0
 18 20  1  0
 20 21  1  0
 21 22  1  0
 21 24  1  0
 22 23  1  0
 24 25  1  0
 24 29  1  0
 24 53  1  0
 25 26  1  0
 26 27  2  0
 26 28  1  0
 28 29  1  0
 29 30  1  0
 30 31  1  0
 30 52  1  0
 31 32  2  0
 31 33  1  0
 33 34  1  0
 33 35  1  0
 35 36  1  0
 36 37  1  0
 36 51  1  0
 37 38  1  0
 38 39  1  0
 39 40  2  0
 40 41  1  0
 41 42  2  0
 41 46  1  0
 42 43  1  0
 43 44  2  0
 43 50  1  0
 44 45  1  0
 44 47  1  0
 45 46  2  0
 47 48  2  0
 48 49  1  0
 49 50  2  0
M  CHG  1   9   1
M  END
>  <s_m_entry_id>  (20) 
1075

>  <s_m_entry_name>  (20) 
1nwx.1

>  <s_pdb_PDB_TITLE>  (20) 
COMPLEX OF THE LARGE RIBOSOMAL SUBUNIT FROM DEINOCOCCUS RADIODURANS WITH ABT-773

>  <s_m_Source_Path>  (20) 
/nfs/zone2/sindhikara/master/src/validation_scripts/tests/prime/macrocycle/BMS208

>  <s_m_Source_File>  (20) 
208refs.maegz

>  <i_m_Source_File_Index>  (20) 
165

>  <s_pdb_PDB_ID>  (20) 
1NWX

>  <r_pdb_PDB_R>  (20) 
0.285

>  <r_pdb_PDB_Rfree>  (20) 
0.313

>  <r_pdb_PDB_RESOLUTION>  (20) 
3.5

>  <s_m_Molecular_formula>  (20) 
C42H60N3O10

>  <r_m_Molecular_weight>  (20) 
766.9606

>  <i_m_Number_of_heavy_atoms>  (20) 
55

>  <i_m_Number_of_atoms>  (20) 
115

>  <s_user_Group>  (20) 
Example PDB

>  <s_user_Preparation>  (20) 
reference

>  <s_user_Primary_PMID>  (20) 
12623020                                                     

>  <s_user_Primary_DOI>  (20) 
10.1016/S0969-2126(03)00022-4    

>  <s_user_Unique_SMILES>  (20) 
c1cccc(c12)ncc(c2)\C=C\CO[C@](C)(C[C@@H](C)C(=O)[C@H](C)[C@H]([C@@]34C)NC(=O)O4)[C@H](O[C@H](O5)[C@H](O)[C@@H]([NH+](C)C)C[C@H]5C)[C@@H](C)C(=O)[C@@H](C)C(=O)O[C@@H]3CC

>  <s_user_Source>  (20) 
PDB

>  <s_user_InChI1S_Key>  (20) 
InChIKey=PENDGIOBPJLVBT-ONLVEXIXSA-N

>  <s_user_Sample>  (20) 
TRAIN

>  <s_user_Microstate_Comment>  (20) 
cyclic carbamate

>  <s_m_subgroup_title>  (20) 
208refs

>  <s_m_subgroupid>  (20) 
208refs

>  <b_m_subgroup_collapsed>  (20) 
0

$$$$
1OKX-C_conf1
     RDKit          3D

 68 70  0  0  1  0  0  0  0  0999 V2000
    0.2826    1.5967   -6.9679 C   0  0  0  0  0  0  0  0  0  0  0  0
    1.1041    0.4996   -6.3585 C   0  0  0  0  0  0  0  0  0  0  0  0
    0.1953   -0.5221   -5.7419 C   0  0  0  0  0  0  0  0  0  0  0  0
   -0.6387    0.1279   -4.6780 C   0  0  0  0  0  0  0  0  0  0  0  0
   -0.2942    1.0880   -3.9952 O   0  0  0  0  0  0  0  0  0  0  0  0
   -1.8265   -0.4639   -4.5486 N   0  0  0  0  0  0  0  0  0  0  0  0
   -2.7760    0.0347   -3.5579 C   0  0  0  0  0  0  0  0  0  0  0  0
   -2.1670   -0.0591   -2.1903 C   0  0  0  0  0  0  0  0  0  0  0  0
   -1.3441   -0.8986   -1.8369 O   0  0  0  0  0  0  0  0  0  0  0  0
   -4.0278   -0.7903   -3.6055 C   0  0  0  0  0  0  0  0  0  0  0  0
   -2.6267    0.8918   -1.3765 N   0  0  0  0  0  0  0  0  0  0  0  0
   -2.1444    0.9574   -0.0000 C   0  0  0  0  0  0  0  0  0  0  0  0
   -0.6581    1.1596    0.0000 C   0  0  0  0  0  0  0  0  0  0  0  0
   -0.0909    2.2482    0.0000 O   0  0  0  0  0  0  0  0  0  0  0  0
   -2.4748   -0.3235    0.7071 C   0  0  0  0  0  0  0  0  0  0  0  0
   -3.1332   -1.1712   -0.1603 O   0  0  0  0  0  0  0  0  0  0  0  0
   -3.3556   -0.0313    1.8856 C   0  0  0  0  0  0  0  0  0  0  0  0
    0.0000    0.0000    0.0000 N   0  0  0  0  0  0  0  0  0  0  0  0
    1.4600    0.0000    0.0000 C   0  0  0  0  0  0  0  0  0  0  0  0
    1.9397   -1.4336   -0.0156 C   0  0  0  0  0  0  0  0  0  0  0  0
    2.8444   -1.7681   -0.8048 O   0  0  0  0  0  0  0  0  0  0  0  0
    1.9502    0.7096    1.2290 C   0  0  0  0  0  0  0  0  0  0  0  0
    3.3058    0.8346    1.2363 O   0  0  0  0  0  0  0  0  0  0  0  0
    1.4688   -0.0200    2.4480 C   0  0  0  0  0  0  0  0  0  0  0  0
    1.3374   -2.4068    0.9035 N   0  0  0  0  0  0  0  0  0  0  0  0
    1.8150   -3.7906    0.9644 C   0  0  0  0  0  0  0  0  0  0  0  0
    3.1754   -3.9231    1.6149 C   0  0  0  0  0  0  0  0  0  0  0  0
    3.5718   -3.0472    2.4088 O   0  0  0  0  0  0  0  0  0  0  0  0
    1.9052   -4.3333   -0.4311 C   0  0  0  0  0  0  0  0  0  0  0  0
    0.5499   -4.2915   -1.0724 C   0  0  0  0  0  0  0  0  0  0  0  0
    0.6401   -4.8342   -2.4678 C   0  0  0  0  0  0  0  0  0  0  0  0
   -0.4075   -5.1246   -0.2728 C   0  0  0  0  0  0  0  0  0  0  0  0
    4.0084   -5.0947    1.2969 N   0  0  0  0  0  0  0  0  0  0  0  0
    5.3404   -5.2741    1.8498 C   0  0  0  0  0  0  0  0  0  0  0  0
    6.4709   -4.9889    0.8565 C   0  0  0  0  0  0  0  0  0  0  0  0
    6.2420   -4.5639   -0.2720 O   0  0  0  0  0  0  0  0  0  0  0  0
    5.5036   -6.7449    2.2924 C   0  0  0  0  0  0  0  0  0  0  0  0
    6.8844   -7.0413    2.8602 C   0  0  0  0  0  0  0  0  0  0  0  0
    8.0154   -6.7156    1.8833 C   0  0  0  0  0  0  0  0  0  0  0  0
    7.9554   -7.6240    0.8462 O   0  0  0  0  0  0  0  0  0  0  0  0
    7.8436   -5.3444    1.3014 N   0  0  0  0  0  0  0  0  0  0  0  0
    8.9652   -4.4286    1.2610 C   0  0  0  0  0  0  0  0  0  0  0  0
   10.1014   -5.2205    0.6849 C   0  0  0  0  0  0  0  0  0  0  0  0
    9.7319   -5.6990   -0.6879 C   0  0  0  0  0  0  0  0  0  0  0  0
   11.2251   -4.4231    0.6072 O   0  0  0  0  0  0  0  0  0  0  0  0
    8.9587   -3.1369    0.5078 C   0  0  0  0  0  0  0  0  0  0  0  0
    9.4981   -3.0924   -0.6343 O   0  0  0  0  0  0  0  0  0  0  0  0
    8.3365   -1.9077    1.0275 N   0  0  0  0  0  0  0  0  0  0  0  0
    8.3720   -0.7186    0.1810 C   0  0  0  0  0  0  0  0  0  0  0  0
    7.7003   -1.8477    2.3423 C   0  0  0  0  0  0  0  0  0  0  0  0
    8.7028   -2.2487    3.3836 C   0  0  0  0  0  0  0  0  0  0  0  0
    8.8989   -1.1188    4.3503 C   0  0  0  0  0  0  0  0  0  0  0  0
    9.8803   -0.1624    4.1056 C   0  0  0  0  0  0  0  0  0  0  0  0
   10.0556    0.8820    5.0070 C   0  0  0  0  0  0  0  0  0  0  0  0
   11.2686    2.0745    4.7158 Cl  0  0  0  0  0  0  0  0  0  0  0  0
    9.2559    0.9689    6.1433 C   0  0  0  0  0  0  0  0  0  0  0  0
    9.4400    2.0103    7.0299 O   0  0  0  0  0  0  0  0  0  0  0  0
    8.2738    0.0137    6.3901 C   0  0  0  0  0  0  0  0  0  0  0  0
    8.0991   -1.0311    5.4876 C   0  0  0  0  0  0  0  0  0  0  0  0
    7.1844   -0.4656    2.6943 C   0  0  0  0  0  0  0  0  0  0  0  0
    7.7069    0.1477    3.6409 O   0  0  0  0  0  0  0  0  0  0  0  0
    6.0860    0.1098    1.9104 N   0  0  0  0  0  0  0  0  0  0  0  0
    5.5489    1.4417    2.1727 C   0  0  0  0  0  0  0  0  0  0  0  0
    4.0339    1.3398    2.2840 C   0  0  0  0  0  0  0  0  0  0  0  0
    3.4935    1.7268    3.3453 O   0  0  0  0  0  0  0  0  0  0  0  0
    5.8174    2.2979    0.9707 C   0  0  0  0  0  0  0  0  0  0  0  0
    5.2767    3.6767    1.2080 C   0  0  0  0  0  0  0  0  0  0  0  0
    7.2963    2.3750    0.7320 C   0  0  0  0  0  0  0  0  0  0  0  0
  1  2  1  0
  2  3  1  0
  3  4  1  0
  4  5  2  0
  4  6  1  0
  6  7  1  0
  7  8  1  0
  7 10  1  0
  8  9  2  0
  8 11  1  0
 11 12  1  0
 12 13  1  0
 12 15  1  0
 13 14  2  0
 13 18  1  0
 15 16  1  0
 15 17  1  0
 18 19  1  0
 19 20  1  0
 19 22  1  0
 20 21  2  0
 20 25  1  0
 22 23  1  0
 22 24  1  0
 23 64  1  0
 25 26  1  0
 26 27  1  0
 26 29  1  0
 27 28  2  0
 27 33  1  0
 29 30  1  0
 30 31  1  0
 30 32  1  0
 33 34  1  0
 34 35  1  0
 34 37  1  0
 35 36  2  0
 35 41  1  0
 37 38  1  0
 38 39  1  0
 39 40  1  0
 39 41  1  0
 41 42  1  0
 42 43  1  0
 42 46  1  0
 43 44  1  0
 43 45  1  0
 46 47  2  0
 46 48  1  0
 48 49  1  0
 48 50  1  0
 50 51  1  0
 50 60  1  0
 51 52  1  0
 52 53  2  0
 52 59  1  0
 53 54  1  0
 54 55  1  0
 54 56  2  0
 56 57  1  0
 56 58  1  0
 58 59  2  0
 60 61  2  0
 60 62  1  0
 62 63  1  0
 63 64  1  0
 63 66  1  0
 64 65  2  0
 66 67  1  0
 66 68  1  0
M  END
>  <i_m_stars>  (21) 
2

>  <s_m_entry_id>  (21) 
1045

>  <s_m_entry_name>  (21) 
208refs.135

>  <s_m_Source_Path>  (21) 
/nfs/zone2/sindhikara/master/src/validation_scripts/tests/prime/macrocycle/BMS208

>  <s_m_Source_File>  (21) 
208refs.maegz

>  <i_m_Source_File_Index>  (21) 
135

>  <r_lp_tautomer_probability>  (21) 
0.999999999997365

>  <r_epik_Ionization_Penalty>  (21) 
  0.0189

>  <r_epik_Ionization_Penalty_Charging>  (21) 
  0.0000

>  <r_epik_Ionization_Penalty_Neutral>  (21) 
  0.0189

>  <r_epik_State_Penalty>  (21) 
  0.0150

>  <i_epik_Tot_Q>  (21) 
0

>  <i_lp_mmshare_version>  (21) 
32005

>  <r_pdb_PDB_RESOLUTION>  (21) 
2.8

>  <r_pdb_PDB_EXPDTA_PH>  (21) 
5

>  <s_user_comment>  (21) 
Identical binding mode for both c and d instances; ; good b factors throughout

>  <r_f3d_energy>  (21) 
1124.73328092446

>  <s_epik_Chemistry_Notes>  (21) 
This compound has an ester and may undergo hydrolysis at high or low pH. This compound contains an acetal/aminal-like group ( X-CH(R)-Y where X, Y are N, S, or O) that may be acid/base labile, releasing an aldehyde.

>  <s_user_Group>  (21) 
B1

>  <s_user_mc_backbone_quality>  (21) 
B

>  <s_user_overall_b-factors>  (21) 
B

>  <s_user_ligand_name>  (21) 
SCYPTOLIN A

>  <s_user_mc_bb_conf_conserved>  (21) 
A

>  <s_m_subgroup_title>  (21) 
208refs

>  <s_m_subgroupid>  (21) 
208refs

>  <b_m_subgroup_collapsed>  (21) 
0

$$$$
1OSF
     RDKit          3D

 44 45  0  0  1  0  0  0  0  0999 V2000
   18.5893   61.9940   40.3596 C   0  0  0  0  0  0  0  0  0  0  0  0
   19.2493   62.1360   41.8256 O   0  0  0  0  0  0  0  0  0  0  0  0
   18.3613   62.5670   42.8716 C   0  0  0  0  0  0  0  0  0  0  0  0
   19.2553   62.5780   44.1766 C   0  0  0  0  0  0  0  0  0  0  0  0
   20.0053   61.3080   44.7086 C   0  0  0  0  0  0  0  0  0  0  0  0
   19.1093   60.0830   44.3996 C   0  0  0  0  0  0  0  0  0  0  0  0
   20.4663   61.3910   46.3116 C   0  0  0  0  0  0  0  0  0  0  0  0
   19.3063   61.6870   47.3196 C   0  0  0  0  0  0  0  0  0  0  0  0
   18.8483   62.9180   47.8406 C   0  0  0  0  0  0  0  0  0  0  0  0
   19.4583   64.1900   47.5106 N   0  0  0  0  0  0  0  0  0  0  0  0
   20.8633   64.5160   47.7166 C   0  0  0  0  0  0  0  0  0  0  0  0
   21.3853   64.9400   49.1456 C   0  0  0  0  0  0  0  0  0  0  0  0
   20.7053   65.8440   50.1966 N   0  0  0  0  0  0  0  0  0  0  0  0
   21.5573   66.0250   51.3406 C   0  0  0  0  0  0  0  0  0  0  0  0
   19.5363   65.3010   50.8216 C   0  0  0  0  0  0  0  0  0  0  0  0
   17.6803   63.0420   48.7936 C   0  0  0  0  0  0  0  0  0  0  0  0
   17.3453   64.1670   49.1766 O   0  0  0  0  0  0  0  0  0  0  0  0
   16.9743   61.7970   49.2406 C   0  0  0  0  0  0  0  0  0  0  0  0
   17.3873   60.5550   48.7916 C   0  0  0  0  0  0  0  0  0  0  0  0
   16.8423   59.2810   49.1366 N   0  0  0  0  0  0  0  0  0  0  0  0
   16.3263   58.0970   48.4756 C   0  0  0  0  0  0  0  0  0  0  0  0
   15.9883   57.2550   49.1576 O   0  0  0  0  0  0  0  0  0  0  0  0
   16.2903   58.0590   46.9316 C   0  0  0  0  0  0  0  0  0  0  0  0
   16.9603   56.8660   46.2926 C   0  0  0  0  0  0  0  0  0  0  0  0
   15.6833   59.0970   46.2616 C   0  0  0  0  0  0  0  0  0  0  0  0
   15.5353   59.3120   44.8166 C   0  0  0  0  0  0  0  0  0  0  0  0
   14.6153   60.0740   44.2386 C   0  0  0  0  0  0  0  0  0  0  0  0
   13.5363   60.8650   44.9246 C   0  0  0  0  0  0  0  0  0  0  0  0
   12.1413   60.3540   44.6076 O   0  0  0  0  0  0  0  0  0  0  0  0
   11.9043   59.0050   44.4266 C   0  0  0  0  0  0  0  0  0  0  0  0
   13.5033   62.3830   44.4996 C   0  0  0  0  0  0  0  0  0  0  0  0
   12.4813   63.0460   45.1976 O   0  0  0  0  0  0  0  0  0  0  0  0
   11.7523   64.0110   44.4746 C   0  0  0  0  0  0  0  0  0  0  0  0
   10.6213   64.2860   45.1576 N   0  0  0  0  0  0  0  0  0  0  0  0
   12.0713   64.5280   43.4136 O   0  0  0  0  0  0  0  0  0  0  0  0
   14.8743   63.2460   44.7216 C   0  0  0  0  0  0  0  0  0  0  0  0
   15.3183   63.4550   46.1656 C   0  0  0  0  0  0  0  0  0  0  0  0
   15.4843   63.7120   43.6686 C   0  0  0  0  0  0  0  0  0  0  0  0
   16.7393   64.5500   43.5276 C   0  0  0  0  0  0  0  0  0  0  0  0
   16.1993   65.9360   43.1126 C   0  0  0  0  0  0  0  0  0  0  0  0
   17.7423   63.9770   42.5176 C   0  0  0  0  0  0  0  0  0  0  0  0
   18.8753   64.9130   42.5106 O   0  0  0  0  0  0  0  0  0  0  0  0
   18.5863   60.4540   47.7986 C   0  0  0  0  0  0  0  0  0  0  0  0
   18.9533   59.3360   47.3926 O   0  0  0  0  0  0  0  0  0  0  0  0
  1  2  1  0
  2  3  1  0
  3  4  1  0
  3 41  1  0
  4  5  1  0
  5  6  1  0
  5  7  1  0
  7  8  1  0
  8  9  2  0
  8 43  1  0
  9 10  1  0
  9 16  1  0
 10 11  1  0
 11 12  1  0
 12 13  1  0
 13 14  1  0
 13 15  1  0
 16 17  2  0
 16 18  1  0
 18 19  2  0
 19 20  1  0
 19 43  1  0
 20 21  1  0
 21 22  2  0
 21 23  1  0
 23 24  1  0
 23 25  2  0
 25 26  1  0
 26 27  2  0
 27 28  1  0
 28 29  1  0
 28 31  1  0
 29 30  1  0
 31 32  1  0
 31 36  1  0
 32 33  1  0
 33 34  1  0
 33 35  2  0
 36 37  1  0
 36 38  2  0
 38 39  1  0
 39 40  1  0
 39 41  1  0
 41 42  1  0
 43 44  2  0
M  CHG  1  13   1
M  END
>  <s_m_entry_id>  (22) 
1076

>  <s_m_entry_name>  (22) 
1osf.1

>  <s_pdb_PDB_TITLE>  (22) 
HUMAN HSP90 IN COMPLEX WITH 17-DESMETHOXY-17-N,N- DIMETHYLAMINOETHYLAMINO-GELDANAMYCIN

>  <s_m_Source_Path>  (22) 
/nfs/zone2/sindhikara/master/src/validation_scripts/tests/prime/macrocycle/BMS208

>  <s_m_Source_File>  (22) 
208refs.maegz

>  <i_m_Source_File_Index>  (22) 
166

>  <s_pdb_PDB_ID>  (22) 
1OSF

>  <r_pdb_PDB_R>  (22) 
0.184

>  <r_pdb_PDB_Rfree>  (22) 
0.219

>  <r_pdb_PDB_RESOLUTION>  (22) 
1.75

>  <s_m_Molecular_formula>  (22) 
C32H49N4O8

>  <r_m_Molecular_weight>  (22) 
617.76933

>  <i_m_Number_of_heavy_atoms>  (22) 
44

>  <i_m_Number_of_atoms>  (22) 
93

>  <s_user_Group>  (22) 
Example PDB

>  <s_user_Preparation>  (22) 
reference

>  <s_user_Primary_PMID>  (22) 
12725864                                                     

>  <s_user_Primary_DOI>  (22) 
10.1016/S1074-5521(03)00075-9    

>  <s_user_Unique_SMILES>  (22) 
C[C@H](C1)C[C@H](OC)[C@H](O)[C@@H](C)/C=C(\C)[C@H](OC(=O)N)[C@@H](OC)\C=C/C=C(\C)C(=O)NC(C2=O)=CC(=O)C(=C12)NCC[NH+](C)C

>  <s_user_Source>  (22) 
PDB

>  <s_user_InChI1S_Key>  (22) 
InChIKey=KUFRQPKVAWMTJO-LMZWQJSESA-N

>  <s_user_Sample>  (22) 
TRAIN

>  <s_user_Name>  (22) 
17-desmethoxy-17-N,N-Dimethylaminoethylamino-Geldanamycin

>  <s_user_Microstate_Comment>  (22) 
cis-amide

>  <s_m_subgroup_title>  (22) 
208refs

>  <s_m_subgroupid>  (22) 
208refs

>  <b_m_subgroup_collapsed>  (22) 
0

$$$$
1PFE
     RDKit          3D

 76 82  0  0  1  0  0  0  0  0999 V2000
  -11.9300   15.2500   14.8270 N   0  0  0  0  0  0  0  0  0  0  0  0
  -12.6630   14.1820   15.0700 C   0  0  0  0  0  0  0  0  0  0  0  0
  -14.0830   14.2310   15.0570 C   0  0  0  0  0  0  0  0  0  0  0  0
  -14.7600   15.3360   14.7960 N   0  0  0  0  0  0  0  0  0  0  0  0
  -14.6360   17.6900   14.3310 C   0  0  0  0  0  0  0  0  0  0  0  0
  -13.9230   18.8380   14.1020 C   0  0  0  0  0  0  0  0  0  0  0  0
  -12.5140   18.7960   14.1250 C   0  0  0  0  0  0  0  0  0  0  0  0
  -11.8650   17.6110   14.3160 C   0  0  0  0  0  0  0  0  0  0  0  0
  -12.6090   16.4150   14.5920 C   0  0  0  0  0  0  0  0  0  0  0  0
  -14.0170   16.4590   14.5820 C   0  0  0  0  0  0  0  0  0  0  0  0
  -11.9680   12.9290   15.4140 C   0  0  0  0  0  0  0  0  0  0  0  0
  -12.5720   11.9350   15.8200 O   0  0  0  0  0  0  0  0  0  0  0  0
  -10.2990   13.9560    5.2710 N   0  0  0  0  0  0  0  0  0  0  0  0
   -9.9850   15.2060    5.0150 C   0  0  0  0  0  0  0  0  0  0  0  0
  -10.9270   16.1580    4.6140 C   0  0  0  0  0  0  0  0  0  0  0  0
  -12.2150   15.8640    4.5070 N   0  0  0  0  0  0  0  0  0  0  0  0
  -13.8920   14.1070    4.5770 C   0  0  0  0  0  0  0  0  0  0  0  0
  -14.2470   12.8050    4.7520 C   0  0  0  0  0  0  0  0  0  0  0  0
  -13.2640   11.8420    5.1480 C   0  0  0  0  0  0  0  0  0  0  0  0
  -11.9940   12.2540    5.3460 C   0  0  0  0  0  0  0  0  0  0  0  0
  -11.5850   13.5850    5.1170 C   0  0  0  0  0  0  0  0  0  0  0  0
  -12.5750   14.5550    4.7370 C   0  0  0  0  0  0  0  0  0  0  0  0
   -8.5450   15.5930    5.1080 C   0  0  0  0  0  0  0  0  0  0  0  0
   -8.1140   16.7050    4.7880 O   0  0  0  0  0  0  0  0  0  0  0  0
  -10.6330   12.9290   15.2490 N   0  0  0  0  0  0  0  0  0  0  0  0
   -9.7620   11.8970   15.7310 C   0  0  0  0  0  0  0  0  0  0  0  0
   -9.2130   10.9660   14.6710 C   0  0  0  0  0  0  0  0  0  0  0  0
   -8.1860   10.3370   14.8580 O   0  0  0  0  0  0  0  0  0  0  0  0
   -8.6260   12.4990   16.5900 C   0  0  0  0  0  0  0  0  0  0  0  0
   -7.7600   13.3170   15.7740 O   0  0  0  0  0  0  0  0  0  0  0  0
   -9.9470   10.8560   13.5410 N   0  0  0  0  0  0  0  0  0  0  0  0
   -9.4980   10.0280   12.4610 C   0  0  0  0  0  0  0  0  0  0  0  0
   -8.3750   10.7360   11.7000 C   0  0  0  0  0  0  0  0  0  0  0  0
   -8.2800   11.9540   11.7760 O   0  0  0  0  0  0  0  0  0  0  0  0
  -10.6070    9.7200   11.4840 C   0  0  0  0  0  0  0  0  0  0  0  0
   -7.5110    9.9950   10.9650 N   0  0  0  0  0  0  0  0  0  0  0  0
   -6.3740   10.6630   10.3100 C   0  0  0  0  0  0  0  0  0  0  0  0
   -5.0170   10.4160   11.0880 C   0  0  0  0  0  0  0  0  0  0  0  0
   -5.3830   10.3660   12.8670 S   0  0  0  0  0  0  0  0  0  0  0  0
   -7.4540    8.5130   10.9750 C   0  0  0  0  0  0  0  0  0  0  0  0
   -6.2710   10.2360    8.8520 C   0  0  0  0  0  0  0  0  0  0  0  0
   -5.3000    9.5450    8.4920 O   0  0  0  0  0  0  0  0  0  0  0  0
   -7.2150   10.6330    7.9910 N   0  0  0  0  0  0  0  0  0  0  0  0
   -8.3730   11.4780    8.3640 C   0  0  0  0  0  0  0  0  0  0  0  0
   -7.1180   10.1900    6.5690 C   0  0  0  0  0  0  0  0  0  0  0  0
   -8.2550    9.2500    6.1710 C   0  0  0  0  0  0  0  0  0  0  0  0
   -7.9590    8.5790    4.8400 C   0  0  0  0  0  0  0  0  0  0  0  0
   -8.5060    8.1960    7.2450 C   0  0  0  0  0  0  0  0  0  0  0  0
   -7.0810   11.3990    5.6500 C   0  0  0  0  0  0  0  0  0  0  0  0
   -7.8250   11.5910    4.7130 O   0  0  0  0  0  0  0  0  0  0  0  0
   -7.7770   14.6110    5.6640 N   0  0  0  0  0  0  0  0  0  0  0  0
   -6.3290   14.6480    5.6480 C   0  0  0  0  0  0  0  0  0  0  0  0
   -5.6920   15.0540    6.9800 C   0  0  0  0  0  0  0  0  0  0  0  0
   -4.5300   14.7440    7.2230 O   0  0  0  0  0  0  0  0  0  0  0  0
   -5.7730   13.3220    5.1040 C   0  0  0  0  0  0  0  0  0  0  0  0
   -6.1360   12.2550    6.0140 O   0  0  0  0  0  0  0  0  0  0  0  0
   -6.4090   15.7990    7.7950 N   0  0  0  0  0  0  0  0  0  0  0  0
   -5.9230   16.1680    9.1160 C   0  0  0  0  0  0  0  0  0  0  0  0
   -5.9930   14.9400   10.0580 C   0  0  0  0  0  0  0  0  0  0  0  0
   -6.8360   14.0900    9.8480 O   0  0  0  0  0  0  0  0  0  0  0  0
   -6.7150   17.3050    9.7350 C   0  0  0  0  0  0  0  0  0  0  0  0
   -5.1570   14.8650   11.1200 N   0  0  0  0  0  0  0  0  0  0  0  0
   -5.2600   13.7400   12.0100 C   0  0  0  0  0  0  0  0  0  0  0  0
   -4.0280   12.9370   11.9390 C   0  0  0  0  0  0  0  0  0  0  0  0
   -3.9080   11.7390   10.5940 S   0  0  0  0  0  0  0  0  0  0  0  0
   -4.0230   15.8300   11.3780 C   0  0  0  0  0  0  0  0  0  0  0  0
   -5.4210   14.2180   13.4730 C   0  0  0  0  0  0  0  0  0  0  0  0
   -4.4860   14.0550   14.2750 O   0  0  0  0  0  0  0  0  0  0  0  0
   -6.5400   14.8300   13.8240 N   0  0  0  0  0  0  0  0  0  0  0  0
   -7.6740   15.0470   12.9310 C   0  0  0  0  0  0  0  0  0  0  0  0
   -6.6760   15.3410   15.2110 C   0  0  0  0  0  0  0  0  0  0  0  0
   -6.8220   16.8610   15.2740 C   0  0  0  0  0  0  0  0  0  0  0  0
   -6.6510   17.3520   16.7060 C   0  0  0  0  0  0  0  0  0  0  0  0
   -5.8040   17.5580   14.4090 C   0  0  0  0  0  0  0  0  0  0  0  0
   -7.8140   14.6330   15.9150 C   0  0  0  0  0  0  0  0  0  0  0  0
   -8.7020   15.1770   16.5360 O   0  0  0  0  0  0  0  0  0  0  0  0
  1  2  2  0
  1  9  1  0
  2  3  1  0
  2 11  1  0
  3  4  2  0
  4 10  1  0
  5  6  1  0
  5 10  2  0
  6  7  2  0
  7  8  1  0
  8  9  2  0
  9 10  1  0
 11 12  2  0
 11 25  1  0
 13 14  2  0
 13 21  1  0
 14 15  1  0
 14 23  1  0
 15 16  2  0
 16 22  1  0
 17 18  1  0
 17 22  2  0
 18 19  2  0
 19 20  1  0
 20 21  2  0
 21 22  1  0
 23 24  2  0
 23 51  1  0
 25 26  1  0
 26 27  1  0
 26 29  1  0
 27 28  2  0
 27 31  1  0
 29 30  1  0
 30 75  1  0
 31 32  1  0
 32 33  1  0
 32 35  1  0
 33 34  2  0
 33 36  1  0
 36 37  1  0
 36 40  1  0
 37 38  1  0
 37 41  1  0
 38 39  1  0
 38 65  1  0
 39 64  1  0
 41 42  2  0
 41 43  1  0
 43 44  1  0
 43 45  1  0
 45 46  1  0
 45 49  1  0
 46 47  1  0
 46 48  1  0
 49 50  2  0
 49 56  1  0
 51 52  1  0
 52 53  1  0
 52 55  1  0
 53 54  2  0
 53 57  1  0
 55 56  1  0
 57 58  1  0
 58 59  1  0
 58 61  1  0
 59 60  2  0
 59 62  1  0
 62 63  1  0
 62 66  1  0
 63 64  1  0
 63 67  1  0
 64 65  1  0
 67 68  2  0
 67 69  1  0
 69 70  1  0
 69 71  1  0
 71 72  1  0
 71 75  1  0
 72 73  1  0
 72 74  1  0
 75 76  2  0
M  END
>  <s_m_entry_id>  (23) 
1077

>  <s_m_entry_name>  (23) 
1pfe.1

>  <s_pdb_PDB_TITLE>  (23) 
ECHINOMYCIN-(GCGTACGC)2 COMPLEX

>  <s_m_Source_Path>  (23) 
/nfs/zone2/sindhikara/master/src/validation_scripts/tests/prime/macrocycle/BMS208

>  <s_m_Source_File>  (23) 
208refs.maegz

>  <i_m_Source_File_Index>  (23) 
167

>  <s_pdb_PDB_ID>  (23) 
1PFE

>  <r_pdb_PDB_R>  (23) 
0.146

>  <r_pdb_PDB_Rfree>  (23) 
0.168

>  <r_pdb_PDB_RESOLUTION>  (23) 
1.1

>  <s_m_Molecular_formula>  (23) 
C50H60N12O12S2

>  <r_m_Molecular_weight>  (23) 
1085.2369

>  <i_m_Number_of_heavy_atoms>  (23) 
76

>  <i_m_Number_of_atoms>  (23) 
136

>  <s_user_Group>  (23) 
Example PDB

>  <s_user_Preparation>  (23) 
reference

>  <s_user_Primary_PMID>  (23) 
15805599                                                     

>  <s_user_Primary_DOI>  (23) 
10.1107/S090744490500137X     

>  <s_user_Unique_SMILES>  (23) 
c1cccc(c12)ncc(n2)C(=O)N[C@@H](C(=O)N[C@@H](C)C(=O)N3C)COC(=O)[C@H](C(C)C)N(C)C(=O)[C@H]([C@@H](S4)S5)N(C)C(=O)[C@H](C)NC(=O)[C@@H](COC(=O)[C@H](C(C)C)N(C)C(=O)[C@@H]3[C@H]45)NC(=O)c(n6)cnc(c67)cccc7

>  <s_user_Source>  (23) 
PDB

>  <s_user_InChI1S_Key>  (23) 
InChIKey=UPVMOKRZXWAACF-JNODPOIUSA-N

>  <s_user_Sample>  (23) 
TRAIN

>  <s_user_Name>  (23) 
Echinomycin

>  <s_user_Microstate_Comment>  (23) 
sulfur coordinates must be bogus, and will add noise to hvy atom RMSD.

>  <s_m_subgroup_title>  (23) 
208refs

>  <s_m_subgroupid>  (23) 
208refs

>  <b_m_subgroup_collapsed>  (23) 
0

$$$$
1PKF
     RDKit          3D

 34 35  0  0  1  0  0  0  0  0999 V2000
    9.8770   38.8450   17.0040 C   0  0  0  0  0  0  0  0  0  0  0  0
    8.4650   39.3670   17.1630 C   0  0  0  0  0  0  0  0  0  0  0  0
    7.5840   38.4710   17.5620 C   0  0  0  0  0  0  0  0  0  0  0  0
    6.1940   38.8430   17.9840 C   0  0  0  0  0  0  0  0  0  0  0  0
    5.1190   38.0610   17.1600 C   0  0  0  0  0  0  0  0  0  0  0  0
    3.6170   38.3950   17.5970 C   0  0  0  0  0  0  0  0  0  0  0  0
    2.5170   38.0170   16.6140 C   0  0  0  0  0  0  0  0  0  0  0  0
    3.4770   39.0460   18.7680 C   0  0  0  0  0  0  0  0  0  0  0  0
    2.2310   39.4570   19.3070 C   0  0  0  0  0  0  0  0  0  0  0  0
    1.8950   39.9450   20.4580 C   0  0  0  0  0  0  0  0  0  0  0  0
    0.1960   40.3190   20.5710 S   0  0  0  0  0  0  0  0  0  0  0  0
    0.0760   39.7760   18.9370 C   0  0  0  0  0  0  0  0  0  0  0  0
   -1.2880   39.8210   18.3090 C   0  0  0  0  0  0  0  0  0  0  0  0
    1.1340   39.3860   18.3930 N   0  0  0  0  0  0  0  0  0  0  0  0
    8.2070   40.8740   17.3890 C   0  0  0  0  0  0  0  0  0  0  0  0
    8.7970   41.7700   16.3080 C   0  0  0  0  0  0  0  0  0  0  0  0
    7.9280   41.6370   15.0440 C   0  0  0  0  0  0  0  0  0  0  0  0
    6.8760   42.6040   14.5620 C   0  0  0  0  0  0  0  0  0  0  0  0
    5.5730   42.7620   15.2390 C   0  0  0  0  0  0  0  0  0  0  0  0
    6.4790   41.8110   13.2160 C   0  0  0  0  0  0  0  0  0  0  0  0
    7.7120   41.7730   12.3970 O   0  0  0  0  0  0  0  0  0  0  0  0
    5.1660   42.3050   12.4820 C   0  0  0  0  0  0  0  0  0  0  0  0
    5.2450   43.7150   11.9170 C   0  0  0  0  0  0  0  0  0  0  0  0
    4.7770   41.3620   11.3450 C   0  0  0  0  0  0  0  0  0  0  0  0
    5.4670   41.4750   10.3210 O   0  0  0  0  0  0  0  0  0  0  0  0
    3.6100   40.3800   11.6060 C   0  0  0  0  0  0  0  0  0  0  0  0
    2.3030   41.0550   11.9450 C   0  0  0  0  0  0  0  0  0  0  0  0
    3.4590   39.3370   10.4970 C   0  0  0  0  0  0  0  0  0  0  0  0
    3.9140   39.5660   12.9630 C   0  0  0  0  0  0  0  0  0  0  0  0
    2.8010   38.7970   13.4340 O   0  0  0  0  0  0  0  0  0  0  0  0
    4.9930   38.5220   12.8860 C   0  0  0  0  0  0  0  0  0  0  0  0
    5.2650   37.9150   14.3070 C   0  0  0  0  0  0  0  0  0  0  0  0
    5.8750   36.8730   14.4020 O   0  0  0  0  0  0  0  0  0  0  0  0
    4.7990   38.6050   15.5110 O   0  0  0  0  0  0  0  0  0  0  0  0
  1  2  1  0
  2  3  2  0
  2 15  1  0
  3  4  1  0
  4  5  1  0
  5  6  1  0
  5 34  1  0
  6  7  1  0
  6  8  2  0
  8  9  1  0
  9 10  2  0
  9 14  1  0
 10 11  1  0
 11 12  1  0
 12 13  1  0
 12 14  2  0
 15 16  1  0
 16 17  1  0
 17 18  1  0
 18 19  1  0
 18 20  1  0
 20 21  1  0
 20 22  1  0
 22 23  1  0
 22 24  1  0
 24 25  2  0
 24 26  1  0
 26 27  1  0
 26 28  1  0
 26 29  1  0
 29 30  1  0
 29 31  1  0
 31 32  1  0
 32 33  2  0
 32 34  1  0
M  END
>  <s_m_entry_id>  (24) 
1078

>  <s_m_entry_name>  (24) 
1pkf.1

>  <s_pdb_PDB_TITLE>  (24) 
CRYSTAL STRUCTURE OF EPOTHILONE D-BOUND CYTOCHROME P450EPOK

>  <s_m_Source_Path>  (24) 
/nfs/zone2/sindhikara/master/src/validation_scripts/tests/prime/macrocycle/BMS208

>  <s_m_Source_File>  (24) 
208refs.maegz

>  <i_m_Source_File_Index>  (24) 
168

>  <s_pdb_PDB_ID>  (24) 
1PKF

>  <r_pdb_PDB_R>  (24) 
0.219

>  <r_pdb_PDB_Rfree>  (24) 
0.275

>  <r_pdb_PDB_RESOLUTION>  (24) 
2.1

>  <s_m_Molecular_formula>  (24) 
C27H41N1O5S1

>  <r_m_Molecular_weight>  (24) 
491.69552

>  <i_m_Number_of_heavy_atoms>  (24) 
34

>  <i_m_Number_of_atoms>  (24) 
75

>  <s_user_Group>  (24) 
Example PDB

>  <s_user_Preparation>  (24) 
reference

>  <s_user_Primary_PMID>  (24) 
12933799                                                     

>  <s_user_Primary_DOI>  (24) 
10.1074/JBC.M308115200     

>  <s_user_Unique_SMILES>  (24) 
Cc(n1)scc1/C=C(\C)[C@@H](OC(=O)C[C@@H]2O)C\C=C(\C)CCC[C@H](C)[C@H](O)[C@@H](C)C(=O)C2(C)C

>  <s_user_Source>  (24) 
PDB

>  <s_user_InChI1S_Key>  (24) 
InChIKey=XOZIUKBZLSUILX-GIQCAXHBSA-N

>  <s_user_Sample>  (24) 
TEST

>  <s_user_Name>  (24) 
Epothilone D

>  <s_m_subgroup_title>  (24) 
208refs

>  <s_m_subgroupid>  (24) 
208refs

>  <b_m_subgroup_collapsed>  (24) 
0

$$$$
1QPF
     RDKit          3D

 67 72  0  0  1  0  0  0  0  0999 V2000
    4.0350   45.8280  107.7730 C   0  0  0  0  0  0  0  0  0  0  0  0
    5.0210   44.6840  107.9580 C   0  0  0  0  0  0  0  0  0  0  0  0
    6.2970   45.2020  108.6160 C   0  0  0  0  0  0  0  0  0  0  0  0
    7.0880   46.1420  107.7300 C   0  0  0  0  0  0  0  0  0  0  0  0
    7.4550   45.4480  106.4350 C   0  0  0  0  0  0  0  0  0  0  0  0
    6.2090   44.9280  105.7380 C   0  0  0  0  0  0  0  0  0  0  0  0
    5.2350   42.8040  106.4590 C   0  0  0  0  0  0  0  0  0  0  0  0
    5.6620   42.1470  105.2970 C   0  0  0  0  0  0  0  0  0  0  0  0
    4.8940   42.0320  103.9760 C   0  0  0  0  0  0  0  0  0  0  0  0
    3.3580   41.9010  104.2530 C   0  0  0  0  0  0  0  0  0  0  0  0
    2.5890   42.3210  103.0000 C   0  0  0  0  0  0  0  0  0  0  0  0
    3.0940   43.6320  102.4020 C   0  0  0  0  0  0  0  0  0  0  0  0
    4.5770   43.4950  102.0740 C   0  0  0  0  0  0  0  0  0  0  0  0
    5.3550   44.6080  101.3730 C   0  0  0  0  0  0  0  0  0  0  0  0
    4.9940   45.9750  101.9580 C   0  0  0  0  0  0  0  0  0  0  0  0
    5.6960   47.1950  101.3600 C   0  0  0  0  0  0  0  0  0  0  0  0
    5.1340   47.7570  100.0470 C   0  0  0  0  0  0  0  0  0  0  0  0
    3.9650   48.6790  100.3560 C   0  0  0  0  0  0  0  0  0  0  0  0
    2.7010   48.2480  100.3160 C   0  0  0  0  0  0  0  0  0  0  0  0
    1.5400   49.0620  100.8390 C   0  0  0  0  0  0  0  0  0  0  0  0
    1.2120   48.6630  102.2780 C   0  0  0  0  0  0  0  0  0  0  0  0
    1.6400   49.6030  103.3930 C   0  0  0  0  0  0  0  0  0  0  0  0
    1.5710   48.9530  104.7790 C   0  0  0  0  0  0  0  0  0  0  0  0
    2.7100   47.9130  104.9780 C   0  0  0  0  0  0  0  0  0  0  0  0
    2.5750   47.1880  106.3410 C   0  0  0  0  0  0  0  0  0  0  0  0
    1.2450   46.4620  106.4380 C   0  0  0  0  0  0  0  0  0  0  0  0
    0.4580   46.7850  107.4650 C   0  0  0  0  0  0  0  0  0  0  0  0
   -0.9350   46.2890  107.5870 C   0  0  0  0  0  0  0  0  0  0  0  0
   -1.4790   46.0480  108.9970 C   0  0  0  0  0  0  0  0  0  0  0  0
   -2.9190   45.5320  109.0420 C   0  0  0  0  0  0  0  0  0  0  0  0
   -3.8570   46.4910  108.2710 C   0  0  0  0  0  0  0  0  0  0  0  0
   -3.3010   46.7990  106.8810 C   0  0  0  0  0  0  0  0  0  0  0  0
   -1.8730   47.2750  106.9010 C   0  0  0  0  0  0  0  0  0  0  0  0
    2.9810   40.4690  104.6130 C   0  0  0  0  0  0  0  0  0  0  0  0
    7.1840   46.8980  101.1950 C   0  0  0  0  0  0  0  0  0  0  0  0
    4.3130   50.1080  100.7710 C   0  0  0  0  0  0  0  0  0  0  0  0
    0.3320   48.8320   99.9260 C   0  0  0  0  0  0  0  0  0  0  0  0
   -0.8480   49.7410  100.2040 C   0  0  0  0  0  0  0  0  0  0  0  0
    4.0640   48.5950  104.8950 C   0  0  0  0  0  0  0  0  0  0  0  0
    0.8780   45.3780  105.4280 C   0  0  0  0  0  0  0  0  0  0  0  0
    1.2240   44.6580  101.4550 C   0  0  0  0  0  0  0  0  0  0  0  0
    5.8790   43.4330   99.4570 C   0  0  0  0  0  0  0  0  0  0  0  0
   -2.8320   44.5600  111.2880 C   0  0  0  0  0  0  0  0  0  0  0  0
   -6.2050   46.4180  108.5110 C   0  0  0  0  0  0  0  0  0  0  0  0
   -6.4290   46.4490  109.8860 C   0  0  0  0  0  0  0  0  0  0  0  0
   -7.1660   46.8600  107.6060 C   0  0  0  0  0  0  0  0  0  0  0  0
   -8.3940   47.3450  108.0790 C   0  0  0  0  0  0  0  0  0  0  0  0
   -7.6140   46.9210  110.3750 C   0  0  0  0  0  0  0  0  0  0  0  0
   -8.5770   47.3580  109.4570 C   0  0  0  0  0  0  0  0  0  0  0  0
   -9.5040   47.7990  107.4100 C   0  0  0  0  0  0  0  0  0  0  0  0
   -9.9210   47.8570  109.6380 N   0  0  0  0  0  0  0  0  0  0  0  0
  -10.5570   48.1590  108.2550 C   0  0  0  0  0  0  0  0  0  0  0  0
  -10.6180   48.0260  110.9460 C   0  0  0  0  0  0  0  0  0  0  0  0
  -10.9190   46.6980  111.6340 C   0  0  0  0  0  0  0  0  0  0  0  0
    5.4650   44.0990  106.6950 N   0  0  0  0  0  0  0  0  0  0  0  0
    3.6070   46.2070  106.5330 O   0  0  0  0  0  0  0  0  0  0  0  0
    3.6280   46.4480  108.7520 O   0  0  0  0  0  0  0  0  0  0  0  0
    4.6120   42.1250  107.2840 O   0  0  0  0  0  0  0  0  0  0  0  0
    6.7800   41.6220  105.2820 O   0  0  0  0  0  0  0  0  0  0  0  0
    5.2420   43.2170  103.2770 O   0  0  0  0  0  0  0  0  0  0  0  0
    5.3990   40.9780  103.1760 O   0  0  0  0  0  0  0  0  0  0  0  0
    2.4060   43.9060  101.2140 O   0  0  0  0  0  0  0  0  0  0  0  0
    5.0690   44.4930   99.9840 O   0  0  0  0  0  0  0  0  0  0  0  0
    0.6110   47.6170  102.5220 O   0  0  0  0  0  0  0  0  0  0  0  0
    1.7000   50.0180  105.7330 O   0  0  0  0  0  0  0  0  0  0  0  0
   -3.4030   45.5210  110.3820 O   0  0  0  0  0  0  0  0  0  0  0  0
   -5.0790   45.8760  108.0330 O   0  0  0  0  0  0  0  0  0  0  0  0
  1  2  1  0
  1 56  1  0
  1 57  2  0
  2  3  1  0
  2 55  1  0
  3  4  1  0
  4  5  1  0
  5  6  1  0
  6 55  1  0
  7  8  1  0
  7 55  1  0
  7 58  2  0
  8  9  1  0
  8 59  2  0
  9 10  1  0
  9 60  1  0
  9 61  1  0
 10 11  1  0
 10 34  1  0
 11 12  1  0
 12 13  1  0
 12 62  1  0
 13 14  1  0
 13 60  1  0
 14 15  1  0
 14 63  1  0
 15 16  1  0
 16 17  1  0
 16 35  1  0
 17 18  1  0
 18 19  2  0
 18 36  1  0
 19 20  1  0
 20 21  1  0
 20 37  1  0
 21 22  1  0
 21 64  2  0
 22 23  1  0
 23 24  1  0
 23 65  1  0
 24 25  1  0
 24 39  1  0
 25 26  1  0
 25 56  1  0
 26 27  2  0
 26 40  1  0
 27 28  1  0
 28 29  1  0
 28 33  1  0
 29 30  1  0
 30 31  1  0
 30 66  1  0
 31 32  1  0
 31 67  1  0
 32 33  1  0
 37 38  1  0
 41 62  1  0
 42 63  1  0
 43 66  1  0
 44 45  2  0
 44 46  1  0
 44 67  1  0
 45 48  1  0
 46 47  2  0
 47 49  1  0
 47 50  1  0
 48 49  2  0
 49 51  1  0
 50 52  1  0
 51 52  1  0
 51 53  1  0
 53 54  1  0
M  END
>  <s_m_entry_id>  (25) 
1079

>  <s_m_entry_name>  (25) 
1qpf.1

>  <s_pdb_PDB_TITLE>  (25) 
FK506 BINDING PROTEIN (12 KDA, HUMAN) COMPLEX WITH L-709,858

>  <s_m_Source_Path>  (25) 
/nfs/zone2/sindhikara/master/src/validation_scripts/tests/prime/macrocycle/BMS208

>  <s_m_Source_File>  (25) 
208refs.maegz

>  <i_m_Source_File_Index>  (25) 
169

>  <s_pdb_PDB_ID>  (25) 
1QPF

>  <r_pdb_PDB_R>  (25) 
0.243

>  <r_pdb_PDB_Rfree>  (25) 
0.31

>  <r_pdb_PDB_RESOLUTION>  (25) 
2.5

>  <s_m_Molecular_formula>  (25) 
C53H80N2O12

>  <r_m_Molecular_weight>  (25) 
937.23475

>  <i_m_Number_of_heavy_atoms>  (25) 
67

>  <i_m_Number_of_atoms>  (25) 
147

>  <s_user_Group>  (25) 
Tacrolimus/analog

>  <s_user_Preparation>  (25) 
reference

>  <s_user_Primary_PMID>  (25) 
10425089                                                     

>  <s_user_Primary_DOI>  (25) 
10.1021/JM9806042      

>  <s_user_Unique_SMILES>  (25) 
CCN(CC1)c(c12)ccc(c2)O[C@H](CC3)[C@H](OC)C[C@@H]3/C=C(\C)[C@@H](OC(=O)[C@H]4N(C(=O)C5=O)CCCC4)[C@H](C)[C@@H](O)CC(=O)[C@H](CC)/C=C(\C)C[C@H](C)C[C@H](OC)[C@@H](O6)[C@@H](OC)C[C@@H](C)[C@]56O

>  <s_user_Source>  (25) 
PDB

>  <s_user_InChI1S_Key>  (25) 
InChIKey=NIHLDWSVGNXBQU-IUQQQLKSSA-N

>  <s_user_Sample>  (25) 
TRAIN

>  <s_user_Name>  (25) 
tacrolimus-like

>  <s_m_subgroup_title>  (25) 
208refs

>  <s_m_subgroupid>  (25) 
208refs

>  <b_m_subgroup_collapsed>  (25) 
0

$$$$
1QPL
     RDKit          3D

 67 72  0  0  1  0  0  0  0  0999 V2000
   47.9280   29.9990    5.2070 C   0  0  0  0  0  0  0  0  0  0  0  0
   48.0600   29.7790    3.7070 C   0  0  0  0  0  0  0  0  0  0  0  0
   49.3580   30.4020    3.2000 C   0  0  0  0  0  0  0  0  0  0  0  0
   49.3660   31.9220    3.2410 C   0  0  0  0  0  0  0  0  0  0  0  0
   48.2010   32.4780    2.4490 C   0  0  0  0  0  0  0  0  0  0  0  0
   46.9000   31.8960    2.9590 C   0  0  0  0  0  0  0  0  0  0  0  0
   46.2470   29.6840    2.1900 C   0  0  0  0  0  0  0  0  0  0  0  0
   45.3170   30.2640    1.3720 C   0  0  0  0  0  0  0  0  0  0  0  0
   43.9070   30.6050    1.7810 C   0  0  0  0  0  0  0  0  0  0  0  0
   43.4350   29.5440    2.7860 C   0  0  0  0  0  0  0  0  0  0  0  0
   42.2140   30.0740    3.5270 C   0  0  0  0  0  0  0  0  0  0  0  0
   42.4080   31.4970    4.0320 C   0  0  0  0  0  0  0  0  0  0  0  0
   42.8100   32.3970    2.8580 C   0  0  0  0  0  0  0  0  0  0  0  0
   43.0270   33.8840    3.1020 C   0  0  0  0  0  0  0  0  0  0  0  0
   43.9920   34.1050    4.2710 C   0  0  0  0  0  0  0  0  0  0  0  0
   44.3060   35.5570    4.6450 C   0  0  0  0  0  0  0  0  0  0  0  0
   43.1210   36.3050    5.2750 C   0  0  0  0  0  0  0  0  0  0  0  0
   43.0730   35.9870    6.7570 C   0  0  0  0  0  0  0  0  0  0  0  0
   42.4750   34.8700    7.1750 C   0  0  0  0  0  0  0  0  0  0  0  0
   42.4450   34.3990    8.5890 C   0  0  0  0  0  0  0  0  0  0  0  0
   43.2030   33.0880    8.7680 C   0  0  0  0  0  0  0  0  0  0  0  0
   44.6430   33.2160    9.2570 C   0  0  0  0  0  0  0  0  0  0  0  0
   45.5240   32.0330    8.8440 C   0  0  0  0  0  0  0  0  0  0  0  0
   45.7360   32.0010    7.3240 C   0  0  0  0  0  0  0  0  0  0  0  0
   46.5020   30.7020    7.0500 C   0  0  0  0  0  0  0  0  0  0  0  0
   45.6540   29.5200    7.4160 C   0  0  0  0  0  0  0  0  0  0  0  0
   46.0920   28.7080    8.3810 C   0  0  0  0  0  0  0  0  0  0  0  0
   45.3660   27.5350    8.9790 C   0  0  0  0  0  0  0  0  0  0  0  0
   46.3320   26.3810    9.2530 C   0  0  0  0  0  0  0  0  0  0  0  0
   45.7260   25.1850    9.9960 C   0  0  0  0  0  0  0  0  0  0  0  0
   45.1200   25.6550   11.3210 C   0  0  0  0  0  0  0  0  0  0  0  0
   44.1140   26.7740   11.0690 C   0  0  0  0  0  0  0  0  0  0  0  0
   44.7170   27.9400   10.3050 C   0  0  0  0  0  0  0  0  0  0  0  0
   43.0580   28.2830    2.0440 C   0  0  0  0  0  0  0  0  0  0  0  0
   44.8160   36.2820    3.4050 C   0  0  0  0  0  0  0  0  0  0  0  0
   43.7020   36.9400    7.7550 C   0  0  0  0  0  0  0  0  0  0  0  0
   40.9910   34.2420    9.0200 C   0  0  0  0  0  0  0  0  0  0  0  0
   40.8200   33.9090   10.4770 C   0  0  0  0  0  0  0  0  0  0  0  0
   46.5600   33.1950    6.8790 C   0  0  0  0  0  0  0  0  0  0  0  0
   44.3810   29.3060    6.6260 C   0  0  0  0  0  0  0  0  0  0  0  0
   40.9700   31.4140    5.8980 C   0  0  0  0  0  0  0  0  0  0  0  0
   41.1990   34.7910    2.0640 C   0  0  0  0  0  0  0  0  0  0  0  0
   47.3780   23.5920    9.3140 C   0  0  0  0  0  0  0  0  0  0  0  0
   44.8260   24.4020   13.2840 C   0  0  0  0  0  0  0  0  0  0  0  0
   46.1740   24.3740   13.6540 C   0  0  0  0  0  0  0  0  0  0  0  0
   43.8150   24.5390   14.2410 C   0  0  0  0  0  0  0  0  0  0  0  0
   44.1450   24.6710   15.6040 C   0  0  0  0  0  0  0  0  0  0  0  0
   46.5290   24.4960   14.9700 C   0  0  0  0  0  0  0  0  0  0  0  0
   45.5080   24.6460   15.9250 C   0  0  0  0  0  0  0  0  0  0  0  0
   43.3380   24.8570   16.7120 C   0  0  0  0  0  0  0  0  0  0  0  0
   45.5660   24.8570   17.4020 N   0  0  0  0  0  0  0  0  0  0  0  0
   44.0060   24.9960   17.9210 C   0  0  0  0  0  0  0  0  0  0  0  0
   46.7610   25.0320   18.2720 C   0  0  0  0  0  0  0  0  0  0  0  0
   47.0050   30.4310    2.9580 N   0  0  0  0  0  0  0  0  0  0  0  0
   46.7840   30.5770    5.6700 O   0  0  0  0  0  0  0  0  0  0  0  0
   48.8470   29.6810    5.9650 O   0  0  0  0  0  0  0  0  0  0  0  0
   46.3080   28.4520    2.1560 O   0  0  0  0  0  0  0  0  0  0  0  0
   45.6500   30.5680    0.2240 O   0  0  0  0  0  0  0  0  0  0  0  0
   43.9960   31.9040    2.2980 O   0  0  0  0  0  0  0  0  0  0  0  0
   43.0760   30.6430    0.6440 O   0  0  0  0  0  0  0  0  0  0  0  0
   41.1770   31.9150    4.5850 O   0  0  0  0  0  0  0  0  0  0  0  0
   41.7360   34.4060    3.3250 O   0  0  0  0  0  0  0  0  0  0  0  0
   42.6610   31.9960    8.5730 O   0  0  0  0  0  0  0  0  0  0  0  0
   46.7790   32.2120    9.5110 O   0  0  0  0  0  0  0  0  0  0  0  0
   46.7030   24.2450   10.3900 O   0  0  0  0  0  0  0  0  0  0  0  0
   44.4940   24.5300   11.9590 O   0  0  0  0  0  0  0  0  0  0  0  0
   43.2070   37.7100    5.0870 O   0  0  0  0  0  0  0  0  0  0  0  0
  1  2  1  0
  1 55  1  0
  1 56  2  0
  2  3  1  0
  2 54  1  0
  3  4  1  0
  4  5  1  0
  5  6  1  0
  6 54  1  0
  7  8  1  0
  7 54  1  0
  7 57  2  0
  8  9  1  0
  8 58  2  0
  9 10  1  0
  9 59  1  0
  9 60  1  0
 10 11  1  0
 10 34  1  0
 11 12  1  0
 12 13  1  0
 12 61  1  0
 13 14  1  0
 13 59  1  0
 14 15  1  0
 14 62  1  0
 15 16  1  0
 16 17  1  0
 16 35  1  0
 17 18  1  0
 17 67  1  0
 18 19  2  0
 18 36  1  0
 19 20  1  0
 20 21  1  0
 20 37  1  0
 21 22  1  0
 21 63  2  0
 22 23  1  0
 23 24  1  0
 23 64  1  0
 24 25  1  0
 24 39  1  0
 25 26  1  0
 25 55  1  0
 26 27  2  0
 26 40  1  0
 27 28  1  0
 28 29  1  0
 28 33  1  0
 29 30  1  0
 30 31  1  0
 30 65  1  0
 31 32  1  0
 31 66  1  0
 32 33  1  0
 37 38  1  0
 41 61  1  0
 42 62  1  0
 43 65  1  0
 44 45  2  0
 44 46  1  0
 44 66  1  0
 45 48  1  0
 46 47  2  0
 47 49  1  0
 47 50  1  0
 48 49  2  0
 49 51  1  0
 50 52  2  0
 51 52  1  0
 51 53  1  0
M  END
>  <s_m_entry_id>  (26) 
1080

>  <s_m_entry_name>  (26) 
1qpl.1

>  <s_pdb_PDB_TITLE>  (26) 
FK506 BINDING PROTEIN (12 KDA, HUMAN) COMPLEX WITH L-707,587

>  <s_m_Source_Path>  (26) 
/nfs/zone2/sindhikara/master/src/validation_scripts/tests/prime/macrocycle/BMS208

>  <s_m_Source_File>  (26) 
208refs.maegz

>  <i_m_Source_File_Index>  (26) 
170

>  <s_pdb_PDB_ID>  (26) 
1QPL

>  <r_pdb_PDB_R>  (26) 
0.223

>  <r_pdb_PDB_Rfree>  (26) 
0.342

>  <r_pdb_PDB_RESOLUTION>  (26) 
2.9

>  <s_m_Molecular_formula>  (26) 
C52H76N2O13

>  <r_m_Molecular_weight>  (26) 
937.19112

>  <i_m_Number_of_heavy_atoms>  (26) 
67

>  <i_m_Number_of_atoms>  (26) 
143

>  <s_user_Group>  (26) 
Tacrolimus/analog

>  <s_user_Preparation>  (26) 
reference

>  <s_user_Primary_PMID>  (26) 
10425089                                                     

>  <s_user_Primary_DOI>  (26) 
10.1021/JM9806042      

>  <s_user_Unique_SMILES>  (26) 
c1cn(C)c(c12)ccc(c2)O[C@H](CC3)[C@H](OC)C[C@@H]3/C=C(\C)[C@@H](OC(=O)[C@H]4N(C(=O)C5=O)CCCC4)[C@H](C)[C@@H](O)CC(=O)[C@H](CC)/C=C(\C)[C@@H](O)[C@H](C)C[C@H](OC)[C@@H](O6)[C@@H](OC)C[C@@H](C)[C@]56O

>  <s_user_Source>  (26) 
PDB

>  <s_user_InChI1S_Key>  (26) 
InChIKey=APSPCHLQXFEUHG-CPBVNLROSA-N

>  <s_user_Sample>  (26) 
TEST

>  <s_user_Name>  (26) 
tacrolimus-like

>  <s_m_subgroup_title>  (26) 
208refs

>  <s_m_subgroupid>  (26) 
208refs

>  <b_m_subgroup_collapsed>  (26) 
0

$$$$
1QZ5
     RDKit          3D

 67 70  0  0  1  0  0  0  0  0999 V2000
   19.4672   59.9033   53.3550 O   0  0  0  0  0  0  0  0  0  0  0  0
   18.9032   61.2193   53.5340 C   0  0  0  0  0  0  0  0  0  0  0  0
   17.4082   61.0743   53.4140 C   0  0  0  0  0  0  0  0  0  0  0  0
   16.7262   60.4313   52.2320 C   0  0  0  0  0  0  0  0  0  0  0  0
   15.3482   59.9763   52.5430 C   0  0  0  0  0  0  0  0  0  0  0  0
   17.1292   60.9693   50.8850 C   0  0  0  0  0  0  0  0  0  0  0  0
   16.6632   60.2723   49.6100 C   0  0  0  0  0  0  0  0  0  0  0  0
   17.3872   59.0283   49.5890 O   0  0  0  0  0  0  0  0  0  0  0  0
   16.6982   57.8603   49.8530 C   0  0  0  0  0  0  0  0  0  0  0  0
   17.5222   56.8683   49.3600 N   0  0  0  0  0  0  0  0  0  0  0  0
   15.4702   57.7183   49.8620 O   0  0  0  0  0  0  0  0  0  0  0  0
   16.7622   61.1303   48.3660 C   0  0  0  0  0  0  0  0  0  0  0  0
   16.2252   60.3263   47.2350 C   0  0  0  0  0  0  0  0  0  0  0  0
   15.1272   59.7903   47.2610 O   0  0  0  0  0  0  0  0  0  0  0  0
   16.9522   60.5553   46.1290 O   0  0  0  0  0  0  0  0  0  0  0  0
   19.4402   61.9373   54.7610 C   0  0  0  0  0  0  0  0  0  0  0  0
   18.9012   63.3543   54.7810 C   0  0  0  0  0  0  0  0  0  0  0  0
   20.9612   62.0793   54.8940 C   0  0  0  0  0  0  0  0  0  0  0  0
   21.3882   60.7253   55.0230 O   0  0  0  0  0  0  0  0  0  0  0  0
   22.6782   60.4743   55.5800 C   0  0  0  0  0  0  0  0  0  0  0  0
   21.7292   62.6943   53.7940 C   0  0  0  0  0  0  0  0  0  0  0  0
   22.2612   63.9543   53.7850 C   0  0  0  0  0  0  0  0  0  0  0  0
   22.8292   64.1073   52.5540 O   0  0  0  0  0  0  0  0  0  0  0  0
   21.8642   62.0773   52.5440 N   0  0  0  0  0  0  0  0  0  0  0  0
   22.4902   62.9723   51.8000 C   0  0  0  0  0  0  0  0  0  0  0  0
   23.0842   62.9043   50.5090 C   0  0  0  0  0  0  0  0  0  0  0  0
   23.8642   63.7463   49.7370 C   0  0  0  0  0  0  0  0  0  0  0  0
   23.9592   63.1323   48.4970 O   0  0  0  0  0  0  0  0  0  0  0  0
   22.6262   61.8723   49.6860 N   0  0  0  0  0  0  0  0  0  0  0  0
   23.1782   61.9403   48.5040 C   0  0  0  0  0  0  0  0  0  0  0  0
   23.0212   61.3443   47.2190 C   0  0  0  0  0  0  0  0  0  0  0  0
   22.0322   60.3373   47.2680 N   0  0  0  0  0  0  0  0  0  0  0  0
   23.7922   61.5453   46.0950 C   0  0  0  0  0  0  0  0  0  0  0  0
   23.1142   60.6733   45.2630 O   0  0  0  0  0  0  0  0  0  0  0  0
   22.1872   59.9293   46.0130 C   0  0  0  0  0  0  0  0  0  0  0  0
   21.3512   58.9823   45.3100 C   0  0  0  0  0  0  0  0  0  0  0  0
   20.3002   58.4963   45.9810 C   0  0  0  0  0  0  0  0  0  0  0  0
   19.3982   57.5113   45.3070 C   0  0  0  0  0  0  0  0  0  0  0  0
   17.9072   57.9013   45.3510 C   0  0  0  0  0  0  0  0  0  0  0  0
   16.8512   56.9553   45.0470 O   0  0  0  0  0  0  0  0  0  0  0  0
   16.2732   56.3513   46.1970 C   0  0  0  0  0  0  0  0  0  0  0  0
   17.6452   59.0943   44.4040 C   0  0  0  0  0  0  0  0  0  0  0  0
   17.4102   58.6163   42.9820 C   0  0  0  0  0  0  0  0  0  0  0  0
   16.5062   60.0253   44.8570 C   0  0  0  0  0  0  0  0  0  0  0  0
   16.2812   61.1833   43.8890 C   0  0  0  0  0  0  0  0  0  0  0  0
   15.3132   62.2413   44.4200 C   0  0  0  0  0  0  0  0  0  0  0  0
   14.0462   61.5973   44.5930 O   0  0  0  0  0  0  0  0  0  0  0  0
   13.1532   62.1743   45.5420 C   0  0  0  0  0  0  0  0  0  0  0  0
   15.1492   63.4823   43.5510 C   0  0  0  0  0  0  0  0  0  0  0  0
   16.4632   64.2203   43.5880 C   0  0  0  0  0  0  0  0  0  0  0  0
   14.7232   63.1273   42.1380 C   0  0  0  0  0  0  0  0  0  0  0  0
   14.3492   64.3053   41.2860 C   0  0  0  0  0  0  0  0  0  0  0  0
   13.7542   63.9223   39.9650 C   0  0  0  0  0  0  0  0  0  0  0  0
   14.0572   62.8433   39.4430 O   0  0  0  0  0  0  0  0  0  0  0  0
   13.2742   65.0423   39.0860 C   0  0  0  0  0  0  0  0  0  0  0  0
   11.8232   64.7123   38.7860 C   0  0  0  0  0  0  0  0  0  0  0  0
   14.0502   65.2223   37.7740 C   0  0  0  0  0  0  0  0  0  0  0  0
   15.4332   65.3743   38.1360 O   0  0  0  0  0  0  0  0  0  0  0  0
   16.4042   64.4053   37.7480 C   0  0  0  0  0  0  0  0  0  0  0  0
   13.5942   66.4483   36.9630 C   0  0  0  0  0  0  0  0  0  0  0  0
   14.1272   66.3733   35.5390 C   0  0  0  0  0  0  0  0  0  0  0  0
   13.9012   67.7413   37.6500 C   0  0  0  0  0  0  0  0  0  0  0  0
   12.8102   68.4323   38.0460 C   0  0  0  0  0  0  0  0  0  0  0  0
   13.0402   69.6523   38.7200 N   0  0  0  0  0  0  0  0  0  0  0  0
   14.3152   70.0873   39.2380 C   0  0  0  0  0  0  0  0  0  0  0  0
   11.9272   70.3953   39.0790 C   0  0  0  0  0  0  0  0  0  0  0  0
   11.9672   71.4763   39.6590 O   0  0  0  0  0  0  0  0  0  0  0  0
  1  2  1  0
  2  3  1  0
  2 16  1  0
  3  4  1  0
  4  5  1  0
  4  6  1  0
  6  7  1  0
  7  8  1  0
  7 12  1  0
  8  9  1  0
  9 10  1  0
  9 11  2  0
 12 13  1  0
 13 14  2  0
 13 15  1  0
 15 44  1  0
 16 17  1  0
 16 18  1  0
 18 19  1  0
 18 21  1  0
 19 20  1  0
 21 22  2  0
 21 24  1  0
 22 23  1  0
 23 25  1  0
 24 25  2  0
 25 26  1  0
 26 27  2  0
 26 29  1  0
 27 28  1  0
 28 30  1  0
 29 30  2  0
 30 31  1  0
 31 32  1  0
 31 33  2  0
 32 35  2  0
 33 34  1  0
 34 35  1  0
 35 36  1  0
 36 37  2  0
 37 38  1  0
 38 39  1  0
 39 40  1  0
 39 42  1  0
 40 41  1  0
 42 43  1  0
 42 44  1  0
 44 45  1  0
 45 46  1  0
 46 47  1  0
 46 49  1  0
 47 48  1  0
 49 50  1  0
 49 51  1  0
 51 52  1  0
 52 53  1  0
 53 54  2  0
 53 55  1  0
 55 56  1  0
 55 57  1  0
 57 58  1  0
 57 60  1  0
 58 59  1  0
 60 61  1  0
 60 62  1  0
 62 63  2  0
 63 64  1  0
 64 65  1  0
 64 66  1  0
 66 67  2  0
M  END
>  <s_m_entry_id>  (27) 
1081

>  <s_m_entry_name>  (27) 
1qz5.1

>  <s_pdb_PDB_TITLE>  (27) 
STRUCTURE OF RABBIT ACTIN IN COMPLEX WITH KABIRAMIDE C

>  <s_m_Source_Path>  (27) 
/nfs/zone2/sindhikara/master/src/validation_scripts/tests/prime/macrocycle/BMS208

>  <s_m_Source_File>  (27) 
208refs.maegz

>  <i_m_Source_File_Index>  (27) 
171

>  <s_pdb_PDB_ID>  (27) 
1QZ5

>  <r_pdb_PDB_R>  (27) 
0.169

>  <r_pdb_PDB_Rfree>  (27) 
0.187

>  <r_pdb_PDB_RESOLUTION>  (27) 
1.45

>  <s_m_Molecular_formula>  (27) 
C48H71N5O14

>  <r_m_Molecular_weight>  (27) 
942.12617

>  <i_m_Number_of_heavy_atoms>  (27) 
67

>  <i_m_Number_of_atoms>  (27) 
138

>  <s_user_Group>  (27) 
Example PDB

>  <s_user_Preparation>  (27) 
reference

>  <s_user_Primary_PMID>  (27) 
14578936                                                     

>  <s_user_Primary_DOI>  (27) 
10.1038/NSB1006      

>  <s_user_Unique_SMILES>  (27) 
O=CN(C)\C=C\[C@@H](C)[C@@H](OC)[C@@H](C)C(=O)CC[C@H](C)[C@@H](OC)C[C@@H]([C@H](C)[C@@H](OC)C\C=C\c1nc(co1)-c(n2)oc3)OC(=O)C[C@@H](OC(=O)N)C[C@H](C)C[C@H](O)[C@H](C)[C@@H](OC)c(co4)nc4-c23

>  <s_user_Source>  (27) 
PDB

>  <s_user_InChI1S_Key>  (27) 
InChIKey=VDALFVIVHBKWES-NODZMMCWSA-N

>  <s_user_Sample>  (27) 
TEST

>  <s_user_Name>  (27) 
kabiramide C

>  <s_m_subgroup_title>  (27) 
208refs

>  <s_m_subgroupid>  (27) 
208refs

>  <b_m_subgroup_collapsed>  (27) 
0

$$$$
1QZ6
     RDKit          3D

 61 64  0  0  1  0  0  0  0  0999 V2000
   25.7294   68.8019   51.1438 O   0  0  0  0  0  0  0  0  0  0  0  0
   24.6244   69.3739   51.0578 C   0  0  0  0  0  0  0  0  0  0  0  0
   23.9264   69.7079   49.9068 N   0  0  0  0  0  0  0  0  0  0  0  0
   24.4754   69.2529   48.6368 C   0  0  0  0  0  0  0  0  0  0  0  0
   22.6854   70.3699   49.9568 C   0  0  0  0  0  0  0  0  0  0  0  0
   21.8934   70.6749   48.9038 C   0  0  0  0  0  0  0  0  0  0  0  0
   20.5864   71.3789   49.1048 C   0  0  0  0  0  0  0  0  0  0  0  0
   19.3734   70.4369   48.9388 C   0  0  0  0  0  0  0  0  0  0  0  0
   19.3594   69.9929   47.5938 O   0  0  0  0  0  0  0  0  0  0  0  0
   18.8634   70.8119   46.5528 C   0  0  0  0  0  0  0  0  0  0  0  0
   19.4384   69.1579   49.7558 C   0  0  0  0  0  0  0  0  0  0  0  0
   19.3074   69.4469   51.2328 C   0  0  0  0  0  0  0  0  0  0  0  0
   18.2654   68.2859   49.3348 C   0  0  0  0  0  0  0  0  0  0  0  0
   17.0884   68.6729   49.3928 O   0  0  0  0  0  0  0  0  0  0  0  0
   18.5844   66.9249   48.8598 C   0  0  0  0  0  0  0  0  0  0  0  0
   17.4024   66.0979   48.3978 C   0  0  0  0  0  0  0  0  0  0  0  0
   17.7334   64.6599   48.0188 C   0  0  0  0  0  0  0  0  0  0  0  0
   18.5944   64.5919   46.7668 C   0  0  0  0  0  0  0  0  0  0  0  0
   16.5034   63.7379   47.9588 C   0  0  0  0  0  0  0  0  0  0  0  0
   15.9084   63.5969   49.2588 O   0  0  0  0  0  0  0  0  0  0  0  0
   16.5604   62.6259   50.1208 C   0  0  0  0  0  0  0  0  0  0  0  0
   15.5034   64.2569   46.9288 C   0  0  0  0  0  0  0  0  0  0  0  0
   14.3714   63.2589   46.7698 C   0  0  0  0  0  0  0  0  0  0  0  0
   14.9864   62.0589   46.2588 O   0  0  0  0  0  0  0  0  0  0  0  0
   14.8974   60.9569   47.0068 C   0  0  0  0  0  0  0  0  0  0  0  0
   14.2834   60.8499   48.0738 O   0  0  0  0  0  0  0  0  0  0  0  0
   15.5944   59.7199   46.4898 C   0  0  0  0  0  0  0  0  0  0  0  0
   14.8034   58.4459   46.6618 C   0  0  0  0  0  0  0  0  0  0  0  0
   13.6904   58.5889   45.7828 O   0  0  0  0  0  0  0  0  0  0  0  0
   15.6264   57.1769   46.4378 C   0  0  0  0  0  0  0  0  0  0  0  0
   15.1604   55.7899   46.8818 C   0  0  0  0  0  0  0  0  0  0  0  0
   14.8884   55.7949   48.2898 O   0  0  0  0  0  0  0  0  0  0  0  0
   15.8674   54.7069   46.1498 C   0  0  0  0  0  0  0  0  0  0  0  0
   13.3994   63.6949   45.6598 C   0  0  0  0  0  0  0  0  0  0  0  0
   12.9004   65.0909   45.9388 C   0  0  0  0  0  0  0  0  0  0  0  0
   12.2954   62.6459   45.4008 C   0  0  0  0  0  0  0  0  0  0  0  0
   11.7744   62.6709   43.9588 C   0  0  0  0  0  0  0  0  0  0  0  0
   12.7964   62.0349   43.1028 C   0  0  0  0  0  0  0  0  0  0  0  0
   13.3904   62.6159   42.0538 C   0  0  0  0  0  0  0  0  0  0  0  0
   14.3904   61.9939   41.2168 C   0  0  0  0  0  0  0  0  0  0  0  0
   15.0054   62.8399   40.2458 O   0  0  0  0  0  0  0  0  0  0  0  0
   15.9174   62.0229   39.6358 C   0  0  0  0  0  0  0  0  0  0  0  0
   14.7574   60.7099   41.2318 N   0  0  0  0  0  0  0  0  0  0  0  0
   15.7254   60.7919   40.2058 C   0  0  0  0  0  0  0  0  0  0  0  0
   16.4464   59.5659   40.0968 C   0  0  0  0  0  0  0  0  0  0  0  0
   16.4314   58.3499   40.6218 N   0  0  0  0  0  0  0  0  0  0  0  0
   17.6014   59.7099   39.2898 O   0  0  0  0  0  0  0  0  0  0  0  0
   18.2464   58.5059   39.4198 C   0  0  0  0  0  0  0  0  0  0  0  0
   17.5314   57.5969   40.1788 C   0  0  0  0  0  0  0  0  0  0  0  0
   17.7004   56.3109   40.7158 C   0  0  0  0  0  0  0  0  0  0  0  0
   16.9524   55.5499   41.4858 N   0  0  0  0  0  0  0  0  0  0  0  0
   18.9324   55.6889   40.4788 O   0  0  0  0  0  0  0  0  0  0  0  0
   18.8524   54.4859   41.1198 C   0  0  0  0  0  0  0  0  0  0  0  0
   17.6234   54.3689   41.7788 C   0  0  0  0  0  0  0  0  0  0  0  0
   17.0354   53.2629   42.5888 C   0  0  0  0  0  0  0  0  0  0  0  0
   17.6754   52.1259   42.0268 O   0  0  0  0  0  0  0  0  0  0  0  0
   17.2554   51.6499   40.7468 C   0  0  0  0  0  0  0  0  0  0  0  0
   17.1734   53.5789   44.0728 C   0  0  0  0  0  0  0  0  0  0  0  0
   18.5674   53.8289   44.6128 C   0  0  0  0  0  0  0  0  0  0  0  0
   16.1254   54.4659   44.6908 C   0  0  0  0  0  0  0  0  0  0  0  0
   15.3394   55.0329   43.9278 O   0  0  0  0  0  0  0  0  0  0  0  0
  1  2  2  0
  2  3  1  0
  3  4  1  0
  3  5  1  0
  5  6  2  0
  6  7  1  0
  7  8  1  0
  8  9  1  0
  8 11  1  0
  9 10  1  0
 11 12  1  0
 11 13  1  0
 13 14  2  0
 13 15  1  0
 15 16  1  0
 16 17  1  0
 17 18  1  0
 17 19  1  0
 19 20  1  0
 19 22  1  0
 20 21  1  0
 22 23  1  0
 23 24  1  0
 23 34  1  0
 24 25  1  0
 25 26  2  0
 25 27  1  0
 27 28  1  0
 28 29  1  0
 28 30  1  0
 30 31  1  0
 31 32  1  0
 31 33  1  0
 33 60  1  0
 34 35  1  0
 34 36  1  0
 36 37  1  0
 37 38  1  0
 38 39  2  0
 39 40  1  0
 40 41  1  0
 40 43  2  0
 41 42  1  0
 42 44  2  0
 43 44  1  0
 44 45  1  0
 45 46  2  0
 45 47  1  0
 46 49  1  0
 47 48  1  0
 48 49  2  0
 49 50  1  0
 50 51  2  0
 50 52  1  0
 51 54  1  0
 52 53  1  0
 53 54  2  0
 54 55  1  0
 55 56  1  0
 55 58  1  0
 56 57  1  0
 58 59  1  0
 58 60  1  0
 60 61  2  0
M  END
>  <s_m_entry_id>  (28) 
1082

>  <s_m_entry_name>  (28) 
1qz6.1

>  <s_pdb_PDB_TITLE>  (28) 
STRUCTURE OF RABBIT ACTIN IN COMPLEX WITH JASPISAMIDE A

>  <s_m_Source_Path>  (28) 
/nfs/zone2/sindhikara/master/src/validation_scripts/tests/prime/macrocycle/BMS208

>  <s_m_Source_File>  (28) 
208refs.maegz

>  <i_m_Source_File_Index>  (28) 
172

>  <s_pdb_PDB_ID>  (28) 
1QZ6

>  <r_pdb_PDB_R>  (28) 
0.165

>  <r_pdb_PDB_Rfree>  (28) 
0.197

>  <r_pdb_PDB_RESOLUTION>  (28) 
1.6

>  <s_m_Molecular_formula>  (28) 
C44H62N4O13

>  <r_m_Molecular_weight>  (28) 
855.00374

>  <i_m_Number_of_heavy_atoms>  (28) 
61

>  <i_m_Number_of_atoms>  (28) 
123

>  <s_user_Group>  (28) 
Example PDB

>  <s_user_Preparation>  (28) 
reference

>  <s_user_Primary_PMID>  (28) 
14578936                                                     

>  <s_user_Primary_DOI>  (28) 
10.1038/NSB1006      

>  <s_user_Unique_SMILES>  (28) 
O=CN(C)\C=C\C[C@@H](OC)[C@@H](C)C(=O)CC[C@H](C)[C@@H](OC)C[C@@H]([C@H](C)CC\C=C\c1nc(co1)-c(n2)oc3)OC(=O)C[C@@H](O)C[C@H](O)CC(=O)[C@H](C)[C@H](OC)c(co4)nc4-c23

>  <s_user_Source>  (28) 
PDB

>  <s_user_InChI1S_Key>  (28) 
InChIKey=ZFFIZZXYOLCUDD-RZKNNNBGSA-N

>  <s_user_Sample>  (28) 
TRAIN

>  <s_user_Name>  (28) 
jaspisamide A

>  <s_m_subgroup_title>  (28) 
208refs

>  <s_m_subgroupid>  (28) 
208refs

>  <b_m_subgroup_collapsed>  (28) 
0

$$$$
1S22
     RDKit          3D

 50 53  0  0  1  0  0  0  0  0999 V2000
   16.3921   55.2059   44.9240 O   0  0  0  0  0  0  0  0  0  0  0  0
   17.5811   55.4459   44.9330 C   0  0  0  0  0  0  0  0  0  0  0  0
   17.9501   56.6589   45.4860 C   0  0  0  0  0  0  0  0  0  0  0  0
   17.0901   57.3699   46.3150 C   0  0  0  0  0  0  0  0  0  0  0  0
   16.8231   58.7019   46.2110 C   0  0  0  0  0  0  0  0  0  0  0  0
   16.0351   59.6349   46.9720 C   0  0  0  0  0  0  0  0  0  0  0  0
   14.7791   59.8289   46.3080 O   0  0  0  0  0  0  0  0  0  0  0  0
   16.7781   60.9149   47.0210 C   0  0  0  0  0  0  0  0  0  0  0  0
   16.0501   62.0479   47.6540 C   0  0  0  0  0  0  0  0  0  0  0  0
   15.4261   61.8649   48.6690 O   0  0  0  0  0  0  0  0  0  0  0  0
   16.2321   63.1499   46.9260 O   0  0  0  0  0  0  0  0  0  0  0  0
   18.5051   54.4389   44.3250 C   0  0  0  0  0  0  0  0  0  0  0  0
   18.5361   54.1979   42.8430 C   0  0  0  0  0  0  0  0  0  0  0  0
   19.1241   52.8879   42.4170 C   0  0  0  0  0  0  0  0  0  0  0  0
   18.8741   55.4089   42.0840 C   0  0  0  0  0  0  0  0  0  0  0  0
   20.0611   55.5699   41.3740 C   0  0  0  0  0  0  0  0  0  0  0  0
   20.1501   56.7839   40.7950 O   0  0  0  0  0  0  0  0  0  0  0  0
   18.2321   56.6349   41.9370 N   0  0  0  0  0  0  0  0  0  0  0  0
   18.9471   57.4269   41.1710 C   0  0  0  0  0  0  0  0  0  0  0  0
   18.8131   58.7539   40.7030 C   0  0  0  0  0  0  0  0  0  0  0  0
   19.4961   59.6589   39.9090 C   0  0  0  0  0  0  0  0  0  0  0  0
   18.9461   60.9119   39.8510 O   0  0  0  0  0  0  0  0  0  0  0  0
   17.7521   59.5379   41.1730 N   0  0  0  0  0  0  0  0  0  0  0  0
   17.8111   60.7419   40.6740 C   0  0  0  0  0  0  0  0  0  0  0  0
   17.0361   61.9079   40.8660 C   0  0  0  0  0  0  0  0  0  0  0  0
   16.0611   61.9529   41.8680 N   0  0  0  0  0  0  0  0  0  0  0  0
   17.2361   63.0669   40.1950 C   0  0  0  0  0  0  0  0  0  0  0  0
   16.3621   63.9589   40.7300 O   0  0  0  0  0  0  0  0  0  0  0  0
   15.7061   63.2009   41.6790 C   0  0  0  0  0  0  0  0  0  0  0  0
   14.6861   63.6849   42.5750 C   0  0  0  0  0  0  0  0  0  0  0  0
   14.1111   63.0519   43.5800 C   0  0  0  0  0  0  0  0  0  0  0  0
   13.1091   63.6869   44.4720 C   0  0  0  0  0  0  0  0  0  0  0  0
   13.4961   63.7359   45.9700 C   0  0  0  0  0  0  0  0  0  0  0  0
   12.4521   63.8019   46.9090 O   0  0  0  0  0  0  0  0  0  0  0  0
   11.7111   62.6079   47.1500 C   0  0  0  0  0  0  0  0  0  0  0  0
   14.6231   64.7359   46.2150 C   0  0  0  0  0  0  0  0  0  0  0  0
   13.9841   66.0939   46.4090 C   0  0  0  0  0  0  0  0  0  0  0  0
   15.6351   64.3839   47.3280 C   0  0  0  0  0  0  0  0  0  0  0  0
   16.5651   65.4959   47.7280 C   0  0  0  0  0  0  0  0  0  0  0  0
   17.6721   64.9679   48.6590 C   0  0  0  0  0  0  0  0  0  0  0  0
   16.9801   64.6549   49.8850 O   0  0  0  0  0  0  0  0  0  0  0  0
   17.5821   63.6959   50.7580 C   0  0  0  0  0  0  0  0  0  0  0  0
   18.8531   65.9299   48.7410 C   0  0  0  0  0  0  0  0  0  0  0  0
   19.7251   65.8629   47.5060 C   0  0  0  0  0  0  0  0  0  0  0  0
   18.5641   67.3249   49.2150 C   0  0  0  0  0  0  0  0  0  0  0  0
   19.5801   68.2959   49.7900 C   0  0  0  0  0  0  0  0  0  0  0  0
   19.4111   69.7809   49.5790 C   0  0  0  0  0  0  0  0  0  0  0  0
   18.6231   70.2419   48.7160 O   0  0  0  0  0  0  0  0  0  0  0  0
   20.4161   70.4959   50.4850 C   0  0  0  0  0  0  0  0  0  0  0  0
   20.2121   70.1809   51.9650 C   0  0  0  0  0  0  0  0  0  0  0  0
  1  2  2  0
  2  3  1  0
  2 12  1  0
  3  4  1  0
  4  5  2  0
  5  6  1  0
  6  7  1  0
  6  8  1  0
  8  9  1  0
  9 10  2  0
  9 11  1  0
 11 38  1  0
 12 13  1  0
 13 14  1  0
 13 15  1  0
 15 16  2  0
 15 18  1  0
 16 17  1  0
 17 19  1  0
 18 19  2  0
 19 20  1  0
 20 21  2  0
 20 23  1  0
 21 22  1  0
 22 24  1  0
 23 24  2  0
 24 25  1  0
 25 26  1  0
 25 27  2  0
 26 29  2  0
 27 28  1  0
 28 29  1  0
 29 30  1  0
 30 31  2  0
 31 32  1  0
 32 33  1  0
 33 34  1  0
 33 36  1  0
 34 35  1  0
 36 37  1  0
 36 38  1  0
 38 39  1  0
 39 40  1  0
 40 41  1  0
 40 43  1  0
 41 42  1  0
 43 44  1  0
 43 45  1  0
 45 46  1  0
 46 47  1  0
 47 48  2  0
 47 49  1  0
 49 50  1  0
M  END
>  <s_m_entry_id>  (29) 
1083

>  <s_m_entry_name>  (29) 
1s22.1

>  <s_pdb_PDB_TITLE>  (29) 
ABSOLUTE STEREOCHEMISTRY OF ULAPUALIDE A

>  <s_m_Source_Path>  (29) 
/nfs/zone2/sindhikara/master/src/validation_scripts/tests/prime/macrocycle/BMS208

>  <s_m_Source_File>  (29) 
208refs.maegz

>  <i_m_Source_File_Index>  (29) 
173

>  <s_pdb_PDB_ID>  (29) 
1S22

>  <r_pdb_PDB_R>  (29) 
0.152

>  <r_pdb_PDB_Rfree>  (29) 
0.179

>  <r_pdb_PDB_RESOLUTION>  (29) 
1.6

>  <s_m_Molecular_formula>  (29) 
C37H49N3O10

>  <r_m_Molecular_weight>  (29) 
695.81718

>  <i_m_Number_of_heavy_atoms>  (29) 
50

>  <i_m_Number_of_atoms>  (29) 
99

>  <s_user_Group>  (29) 
Example PDB

>  <s_user_Preparation>  (29) 
reference

>  <s_user_Primary_PMID>  (29) 
14961632                                                     

>  <s_user_Primary_DOI>  (29) 
10.1021/OL036458Y      

>  <s_user_Unique_SMILES>  (29) 
c1oc(n2)-c(co3)nc3/C=C/C[C@H](OC)[C@@H](C)[C@H](C[C@H](OC)[C@@H](C)CCC(=O)CC)OC(=O)C[C@@H](O)/C=C/CC(=O)C[C@H](C)c(co4)nc4-c12

>  <s_user_Source>  (29) 
PDB

>  <s_user_InChI1S_Key>  (29) 
InChIKey=GCXYNAMEICOJSD-PIOOLNQISA-N

>  <s_user_Sample>  (29) 
TEST

>  <s_user_Name>  (29) 
ulapualide A-like

>  <s_user_Microstate_Comment>  (29) 
truncated at a.n 50

>  <s_m_subgroup_title>  (29) 
208refs

>  <s_m_subgroupid>  (29) 
208refs

>  <b_m_subgroup_collapsed>  (29) 
0

$$$$
1SKX
     RDKit          3D

 51 54  0  0  1  0  0  0  0  0999 V2000
   14.8060   77.1250   -1.2100 C   0  0  0  0  0  0  0  0  0  0  0  0
   14.9530   76.7510   -2.5930 C   0  0  0  0  0  0  0  0  0  0  0  0
   14.2410   77.3750   -3.6470 C   0  0  0  0  0  0  0  0  0  0  0  0
   13.3480   78.4320   -3.3310 C   0  0  0  0  0  0  0  0  0  0  0  0
   12.2150   79.9560   -1.5640 C   0  0  0  0  0  0  0  0  0  0  0  0
   12.0880   80.3040   -0.1640 C   0  0  0  0  0  0  0  0  0  0  0  0
   12.7550   79.7350    0.9040 C   0  0  0  0  0  0  0  0  0  0  0  0
   13.6980   78.6400    0.5820 C   0  0  0  0  0  0  0  0  0  0  0  0
   13.8880   78.2100   -0.8770 C   0  0  0  0  0  0  0  0  0  0  0  0
   13.1410   78.8610   -1.9790 C   0  0  0  0  0  0  0  0  0  0  0  0
   11.3470   80.8020   -2.2760 C   0  0  0  0  0  0  0  0  0  0  0  0
   10.6460   81.7030   -1.2870 C   0  0  0  0  0  0  0  0  0  0  0  0
   10.9160   83.1760   -1.5580 C   0  0  0  0  0  0  0  0  0  0  0  0
   12.5680   80.1680    2.3500 C   0  0  0  0  0  0  0  0  0  0  0  0
   17.1470   75.5830   -2.7660 C   0  0  0  0  0  0  0  0  0  0  0  0
   17.6400   74.2550   -3.3350 C   0  0  0  0  0  0  0  0  0  0  0  0
   16.8930   73.0920   -3.3370 C   0  0  0  0  0  0  0  0  0  0  0  0
   15.5230   72.8410   -2.8240 C   0  0  0  0  0  0  0  0  0  0  0  0
   14.7310   71.9080   -3.3150 C   0  0  0  0  0  0  0  0  0  0  0  0
   13.2380   71.9370   -3.6520 C   0  0  0  0  0  0  0  0  0  0  0  0
   12.2890   72.6160   -2.6350 C   0  0  0  0  0  0  0  0  0  0  0  0
   10.7690   72.5470   -2.9870 C   0  0  0  0  0  0  0  0  0  0  0  0
    9.8080   73.2340   -1.9900 C   0  0  0  0  0  0  0  0  0  0  0  0
    9.4590   74.6940   -2.3360 C   0  0  0  0  0  0  0  0  0  0  0  0
    8.7040   75.3920   -1.1870 C   0  0  0  0  0  0  0  0  0  0  0  0
    9.1420   76.9080   -1.0390 C   0  0  0  0  0  0  0  0  0  0  0  0
    8.1200   77.8900   -0.3890 C   0  0  0  0  0  0  0  0  0  0  0  0
    8.6220   79.3300   -0.2860 C   0  0  0  0  0  0  0  0  0  0  0  0
    8.6940   80.1240   -1.3460 C   0  0  0  0  0  0  0  0  0  0  0  0
   19.0360   74.3270   -3.9140 C   0  0  0  0  0  0  0  0  0  0  0  0
   13.1190   72.5420   -5.0820 C   0  0  0  0  0  0  0  0  0  0  0  0
   10.2780   71.0930   -3.2010 C   0  0  0  0  0  0  0  0  0  0  0  0
    8.6900   74.8020   -3.6660 C   0  0  0  0  0  0  0  0  0  0  0  0
   10.4690   76.8700   -0.2740 C   0  0  0  0  0  0  0  0  0  0  0  0
    6.3990   74.5210   -0.6260 C   0  0  0  0  0  0  0  0  0  0  0  0
    5.0210   74.4980   -1.0880 C   0  0  0  0  0  0  0  0  0  0  0  0
    6.3960   77.6190    1.3030 C   0  0  0  0  0  0  0  0  0  0  0  0
   14.3800   76.9970   -5.0480 C   0  0  0  0  0  0  0  0  0  0  0  0
   15.8150   75.7050   -2.9500 N   0  0  0  0  0  0  0  0  0  0  0  0
   15.5210   76.4690   -0.2660 O   0  0  0  0  0  0  0  0  0  0  0  0
   14.3560   78.0450    1.5130 O   0  0  0  0  0  0  0  0  0  0  0  0
   11.1740   81.3300    0.0270 O   0  0  0  0  0  0  0  0  0  0  0  0
   11.0840   80.9140   -3.5060 O   0  0  0  0  0  0  0  0  0  0  0  0
    9.2030   81.4680   -1.3130 O   0  0  0  0  0  0  0  0  0  0  0  0
    7.7960   77.4010    0.9630 O   0  0  0  0  0  0  0  0  0  0  0  0
    7.2150   75.2500   -1.4800 O   0  0  0  0  0  0  0  0  0  0  0  0
    6.7870   73.9760    0.3620 O   0  0  0  0  0  0  0  0  0  0  0  0
   10.3370   73.2330   -0.6280 O   0  0  0  0  0  0  0  0  0  0  0  0
   12.5330   71.9770   -1.3730 O   0  0  0  0  0  0  0  0  0  0  0  0
   17.9010   76.3930   -2.2240 O   0  0  0  0  0  0  0  0  0  0  0  0
   12.6980   78.9800   -4.4220 O   0  0  0  0  0  0  0  0  0  0  0  0
  1  2  1  0
  1  9  2  0
  1 40  1  0
  2  3  2  0
  2 39  1  0
  3  4  1  0
  3 38  1  0
  4 10  2  0
  4 51  1  0
  5  6  2  0
  5 10  1  0
  5 11  1  0
  6  7  1  0
  6 42  1  0
  7  8  2  0
  7 14  1  0
  8  9  1  0
  8 41  1  0
  9 10  1  0
 11 12  1  0
 11 43  2  0
 12 13  1  0
 12 42  1  0
 12 44  1  0
 15 16  1  0
 15 39  1  0
 15 50  2  0
 16 17  2  0
 16 30  1  0
 17 18  1  0
 18 19  2  0
 19 20  1  0
 20 21  1  0
 20 31  1  0
 21 22  1  0
 21 49  1  0
 22 23  1  0
 22 32  1  0
 23 24  1  0
 23 48  1  0
 24 25  1  0
 24 33  1  0
 25 26  1  0
 25 46  1  0
 26 27  1  0
 26 34  1  0
 27 28  1  0
 27 45  1  0
 28 29  2  0
 29 44  1  0
 35 36  1  0
 35 46  1  0
 35 47  2  0
 37 45  1  0
M  END
>  <s_m_entry_id>  (30) 
1084

>  <s_m_entry_name>  (30) 
1skx.1

>  <s_pdb_PDB_TITLE>  (30) 
STRUCTURAL DISORDER IN THE COMPLEX OF HUMAN PXR AND THE MACROLIDE ANTIBIOTIC RIFAMPICIN

>  <s_m_Source_Path>  (30) 
/nfs/zone2/sindhikara/master/src/validation_scripts/tests/prime/macrocycle/BMS208

>  <s_m_Source_File>  (30) 
208refs.maegz

>  <i_m_Source_File_Index>  (30) 
174

>  <s_pdb_PDB_ID>  (30) 
1SKX

>  <r_pdb_PDB_R>  (30) 
0.218

>  <r_pdb_PDB_Rfree>  (30) 
0.266

>  <r_pdb_PDB_RESOLUTION>  (30) 
2.8

>  <s_m_Molecular_formula>  (30) 
C38H49N1O12

>  <r_m_Molecular_weight>  (30) 
711.81373

>  <i_m_Number_of_heavy_atoms>  (30) 
51

>  <i_m_Number_of_atoms>  (30) 
100

>  <s_user_Group>  (30) 
Example PDB

>  <s_user_Preparation>  (30) 
reference

>  <s_user_Primary_PMID>  (30) 
15705662                                                     

>  <s_user_Primary_DOI>  (30) 
10.1210/ME.2004-0346      

>  <s_user_Unique_SMILES>  (30) 
O1\C=C\[C@H](OC)[C@@H](C)[C@@H](OC(=O)C)[C@H](C)[C@H](O)[C@H](C)[C@@H](O)[C@@H](C)\C=C\C=C(\C)C(=O)Nc(c2O)c(C)c(O)c3c2c(O)c(C)c(O4)c3C(=O)[C@@]14C

>  <s_user_Source>  (30) 
PDB

>  <s_user_InChI1S_Key>  (30) 
InChIKey=QRFUATLTDNBYBB-BUWHEUOSSA-N

>  <s_user_Sample>  (30) 
TEST

>  <s_user_Name>  (30) 
Rifampicin-like

>  <s_user_Microstate_Comment>  (30) 
truncated at a.n 38

>  <s_m_subgroup_title>  (30) 
208refs

>  <s_m_subgroupid>  (30) 
208refs

>  <b_m_subgroup_collapsed>  (30) 
0

$$$$
1TPS
     RDKit          3D

 72 74  0  0  1  0  0  0  0  0999 V2000
   23.0880    0.0260   33.5880 C   0  0  0  0  0  0  0  0  0  0  0  0
   23.4920    0.4240   35.0090 C   0  0  0  0  0  0  0  0  0  0  0  0
   22.3140    0.8040   35.7780 N   0  0  0  0  0  0  0  0  0  0  0  0
   21.9350    2.0720   35.8740 C   0  0  0  0  0  0  0  0  0  0  0  0
   20.5560    2.3260   36.4620 C   0  0  0  0  0  0  0  0  0  0  0  0
   20.3270    1.5240   37.6610 N   0  0  0  0  0  0  0  0  0  0  0  0
   19.2380    0.7730   37.8350 C   0  0  0  0  0  0  0  0  0  0  0  0
   18.2040    0.7150   36.6950 C   0  0  0  0  0  0  0  0  0  0  0  0
   18.4460   -0.3350   35.6820 N   0  0  0  0  0  0  0  0  0  0  0  0
   18.4760    0.0690   34.3900 C   0  0  0  0  0  0  0  0  0  0  0  0
   18.6200   -0.9990   33.3170 C   0  0  0  0  0  0  0  0  0  0  0  0
   19.3800   -0.4500   32.1950 N   0  0  0  0  0  0  0  0  0  0  0  0
   18.7640   -0.0100   31.1020 C   0  0  0  0  0  0  0  0  0  0  0  0
   19.6070    0.8360   30.1490 C   0  0  0  0  0  0  0  0  0  0  0  0
   20.9850    0.3800   30.0940 N   0  0  0  0  0  0  0  0  0  0  0  0
   21.9300    1.1170   30.6610 C   0  0  0  0  0  0  0  0  0  0  0  0
   23.3770    0.7190   30.3720 C   0  0  0  0  0  0  0  0  0  0  0  0
   23.8080   -0.4110   31.3370 C   0  0  0  0  0  0  0  0  0  0  0  0
   24.0010    0.1170   32.6640 O   0  0  0  0  0  0  0  0  0  0  0  0
   24.2220    1.8980   30.4860 N   0  0  0  0  0  0  0  0  0  0  0  0
   24.1200    2.8970   29.6150 C   0  0  0  0  0  0  0  0  0  0  0  0
   25.0950    4.0480   29.7760 C   0  0  0  0  0  0  0  0  0  0  0  0
   24.3620    5.3090   29.7150 N   0  0  0  0  0  0  0  0  0  0  0  0
   24.3270    6.1570   30.7320 C   0  0  0  0  0  0  0  0  0  0  0  0
   23.4840    7.4050   30.5390 C   0  0  0  0  0  0  0  0  0  0  0  0
   24.3920    8.6190   30.3360 C   0  0  0  0  0  0  0  0  0  0  0  0
   21.9420   -0.3600   33.3400 O   0  0  0  0  0  0  0  0  0  0  0  0
   24.2690   -0.7360   35.6870 C   0  0  0  0  0  0  0  0  0  0  0  0
   24.4890   -0.4150   37.1520 C   0  0  0  0  0  0  0  0  0  0  0  0
   23.5300   -2.0490   35.5410 C   0  0  0  0  0  0  0  0  0  0  0  0
   22.6540    3.0140   35.5330 O   0  0  0  0  0  0  0  0  0  0  0  0
   19.0310    0.1500   38.8790 O   0  0  0  0  0  0  0  0  0  0  0  0
   18.3720    1.2570   34.0680 O   0  0  0  0  0  0  0  0  0  0  0  0
   17.5880   -0.2740   30.8580 O   0  0  0  0  0  0  0  0  0  0  0  0
   21.6650    2.1150   31.3460 O   0  0  0  0  0  0  0  0  0  0  0  0
   20.4040    3.8160   36.7810 C   0  0  0  0  0  0  0  0  0  0  0  0
   18.9780    4.2270   37.0370 C   0  0  0  0  0  0  0  0  0  0  0  0
   18.3760    4.0160   38.2820 C   0  0  0  0  0  0  0  0  0  0  0  0
   17.0400    4.3600   38.5000 C   0  0  0  0  0  0  0  0  0  0  0  0
   16.3030    4.9200   37.4620 C   0  0  0  0  0  0  0  0  0  0  0  0
   14.9940    5.3040   37.6460 O   0  0  0  0  0  0  0  0  0  0  0  0
   16.8880    5.1360   36.2250 C   0  0  0  0  0  0  0  0  0  0  0  0
   18.2150    4.7890   36.0210 C   0  0  0  0  0  0  0  0  0  0  0  0
   21.3470    1.5860   38.7070 C   0  0  0  0  0  0  0  0  0  0  0  0
   16.8210    0.3710   37.2680 C   0  0  0  0  0  0  0  0  0  0  0  0
   15.5360    0.3760   36.4360 C   0  0  0  0  0  0  0  0  0  0  0  0
   14.3640    0.1840   37.3900 C   0  0  0  0  0  0  0  0  0  0  0  0
   15.3790    1.6710   35.6820 C   0  0  0  0  0  0  0  0  0  0  0  0
   19.2820   -2.2590   33.8680 C   0  0  0  0  0  0  0  0  0  0  0  0
   18.7160   -2.6380   35.2110 C   0  0  0  0  0  0  0  0  0  0  0  0
   18.9750   -1.5760   36.2820 C   0  0  0  0  0  0  0  0  0  0  0  0
   20.3930   -1.4680   36.4560 O   0  0  0  0  0  0  0  0  0  0  0  0
   19.0220    0.8990   28.7360 C   0  0  0  0  0  0  0  0  0  0  0  0
   19.5990    2.0650   27.9660 C   0  0  0  0  0  0  0  0  0  0  0  0
   19.2920    2.0710   26.4780 C   0  0  0  0  0  0  0  0  0  0  0  0
   19.7210    3.3560   25.9240 N   0  0  0  0  0  0  0  0  0  0  0  0
   19.4860    3.7790   24.6820 C   0  0  0  0  0  0  0  0  0  0  0  0
   18.8130    3.0220   23.8230 N   0  0  0  0  0  0  0  0  0  0  0  0
   19.8790    4.9940   24.3190 N   0  0  0  0  0  0  0  0  0  0  0  0
   25.1070   -1.0790   30.8680 C   0  0  0  0  0  0  0  0  0  0  0  0
   23.2980    2.9100   28.6980 O   0  0  0  0  0  0  0  0  0  0  0  0
   26.1320    3.9880   28.6540 C   0  0  0  0  0  0  0  0  0  0  0  0
   27.2110    5.0660   28.7160 C   0  0  0  0  0  0  0  0  0  0  0  0
   28.1740    4.7360   29.8360 C   0  0  0  0  0  0  0  0  0  0  0  0
   27.9420    5.1880   27.3860 C   0  0  0  0  0  0  0  0  0  0  0  0
   24.9590    5.9770   31.7720 O   0  0  0  0  0  0  0  0  0  0  0  0
   22.7010    7.2020   29.3670 O   0  0  0  0  0  0  0  0  0  0  0  0
   25.2710    8.2920   29.2130 O   0  0  0  0  0  0  0  0  0  0  0  0
   26.4760    9.2450   28.8840 S   0  0  0  0  0  0  0  0  0  0  0  0
   25.8690   10.5700   28.5560 O   0  0  0  0  0  0  0  0  0  0  0  0
   27.3810    9.3390   30.0600 O   0  0  0  0  0  0  0  0  0  0  0  0
   27.2430    8.6810   27.7130 O   0  0  0  0  0  0  0  0  0  0  0  0
  1  2  1  0
  1 19  1  0
  1 27  2  0
  2  3  1  0
  2 28  1  0
  3  4  1  0
  4  5  1  0
  4 31  2  0
  5  6  1  0
  5 36  1  0
  6  7  1  0
  6 44  1  0
  7  8  1  0
  7 32  2  0
  8  9  1  0
  8 45  1  0
  9 10  1  0
  9 51  1  0
 10 11  1  0
 10 33  2  0
 11 12  1  0
 11 49  1  0
 12 13  1  0
 13 14  1  0
 13 34  2  0
 14 15  1  0
 14 53  1  0
 15 16  1  0
 16 17  1  0
 16 35  2  0
 17 18  1  0
 17 20  1  0
 18 19  1  0
 18 60  1  0
 20 21  1  0
 21 22  1  0
 21 61  2  0
 22 23  1  0
 22 62  1  0
 23 24  1  0
 24 25  1  0
 24 66  2  0
 25 26  1  0
 25 67  1  0
 26 68  1  0
 28 29  1  0
 28 30  1  0
 36 37  1  0
 37 38  2  0
 37 43  1  0
 38 39  1  0
 39 40  2  0
 40 41  1  0
 40 42  1  0
 42 43  2  0
 45 46  1  0
 46 47  1  0
 46 48  1  0
 49 50  1  0
 50 51  1  0
 51 52  1  0
 53 54  1  0
 54 55  1  0
 55 56  1  0
 56 57  1  0
 57 58  2  0
 57 59  1  0
 62 63  1  0
 63 64  1  0
 63 65  1  0
 68 69  1  0
 69 70  2  0
 69 71  2  0
 69 72  1  0
M  CHG  2  58   1  72  -1
M  END
>  <s_m_entry_id>  (31) 
1085

>  <s_m_entry_name>  (31) 
1tps.1

>  <s_pdb_PDB_TITLE>  (31) 
ATOMIC STRUCTURE OF THE TRYPSIN-A90720A COMPLEX: A UNIFIED APPROACH TO STRUCTURE AND FUNCTION

>  <s_m_Source_Path>  (31) 
/nfs/zone2/sindhikara/master/src/validation_scripts/tests/prime/macrocycle/BMS208

>  <s_m_Source_File>  (31) 
208refs.maegz

>  <i_m_Source_File_Index>  (31) 
175

>  <s_pdb_PDB_ID>  (31) 
1TPS

>  <r_pdb_PDB_R>  (31) 
0.162

>  <r_pdb_PDB_Rfree>  (31) 
0.197

>  <r_pdb_PDB_RESOLUTION>  (31) 
1.9

>  <s_m_Molecular_formula>  (31) 
C45H72N10O16S1

>  <r_m_Molecular_weight>  (31) 
1041.19699

>  <i_m_Number_of_heavy_atoms>  (31) 
72

>  <i_m_Number_of_atoms>  (31) 
144

>  <s_user_Group>  (31) 
Example PDB

>  <s_user_Preparation>  (31) 
reference

>  <s_user_Primary_PMID>  (31) 
9383379                                                      

>  <s_user_Primary_DOI>  (31) 
10.1016/1074-5521(94)90049-3     

>  <s_user_Unique_SMILES>  (31) 
[O-]S(=O)(=O)OC[C@@H](O)C(=O)N[C@H](CC(C)C)C(=O)N[C@H](C(=O)N[C@H](C(=O)N1)CCCNC(N)=[NH2+])[C@@H](C)OC(=O)[C@H](C(C)C)NC(=O)[C@H](Cc2ccc(O)cc2)N(C)C(=O)[C@H](CC(C)C)N(C(=O)[C@@H]13)[C@H](O)CC3

>  <s_user_Source>  (31) 
PDB

>  <s_user_InChI1S_Key>  (31) 
InChIKey=VVBXXVAFSPEIJQ-CNCNYOROSA-N

>  <s_user_Sample>  (31) 
TRAIN

>  <s_user_Name>  (31) 
A90720A

>  <s_m_subgroup_title>  (31) 
208refs

>  <s_m_subgroupid>  (31) 
208refs

>  <b_m_subgroup_collapsed>  (31) 
0

$$$$
1WAW_conf1
     RDKit          3D

 48 51  0  0  1  0  0  0  0  0999 V2000
   -0.4603   -0.7446    1.2371 C   0  0  0  0  0  0  0  0  0  0  0  0
   -0.6153    1.3298   -0.0000 N   0  0  0  0  0  0  0  0  0  0  0  0
    0.3764   -0.8690    2.1785 O   0  0  0  0  0  0  0  0  0  0  0  0
    0.0000    0.0000    0.0000 C   0  0  0  0  0  0  0  0  0  0  0  0
    1.5000    0.0000    0.0000 C   0  0  0  0  0  0  0  0  0  0  0  0
    3.5000   -1.4142   -0.0000 C   0  0  0  0  0  0  0  0  0  0  0  0
    3.9867   -0.7260    1.1921 N   0  0  0  0  0  0  0  0  0  0  0  0
    2.0000   -1.4142   -0.0000 C   0  0  0  0  0  0  0  0  0  0  0  0
    4.2300   -1.4768    2.4203 C   0  0  0  0  0  0  0  0  0  0  0  0
    4.9147   -1.5599    4.7045 C   0  0  0  0  0  0  0  0  0  0  0  0
    6.0098   -2.0539    4.9639 O   0  0  0  0  0  0  0  0  0  0  0  0
    3.7526   -1.6516    5.6485 C   0  0  0  0  0  0  0  0  0  0  0  0
    4.0056   -2.9161    2.5184 N   0  0  0  0  0  0  0  0  0  0  0  0
    4.6592   -0.8451    3.4574 N   0  0  0  0  0  0  0  0  0  0  0  0
   -1.8051   -1.2921    1.3752 N   0  0  0  0  0  0  0  0  0  0  0  0
   -2.2423   -1.9352    2.6609 C   0  0  0  0  0  0  0  0  0  0  0  0
   -3.6535   -2.5149    2.2278 C   0  0  0  0  0  0  0  0  0  0  0  0
   -3.5735   -2.6030    0.6673 C   0  0  0  0  0  0  0  0  0  0  0  0
   -2.8186   -1.2555    0.2894 C   0  0  0  0  0  0  0  0  0  0  0  0
   -2.3510   -1.0286    3.9053 C   0  0  0  0  0  0  0  0  0  0  0  0
   -2.0459   -1.5084    5.0110 O   0  0  0  0  0  0  0  0  0  0  0  0
   -2.7981    0.3549    3.7636 N   0  0  0  0  0  0  0  0  0  0  0  0
   -2.8768    1.2659    4.9531 C   0  0  0  0  0  0  0  0  0  0  0  0
   -3.3134    2.7005    4.5799 C   0  0  0  0  0  0  0  0  0  0  0  0
   -4.4469    2.9718    4.2724 O   0  0  0  0  0  0  0  0  0  0  0  0
   -1.4601    1.6286    5.6208 C   0  0  0  0  0  0  0  0  0  0  0  0
   -1.0380    3.1611    5.4098 C   0  0  0  0  0  0  0  0  0  0  0  0
    0.1443    3.2150    4.7001 O   0  0  0  0  0  0  0  0  0  0  0  0
   -2.2169    3.6677    4.6488 N   0  0  0  0  0  0  0  0  0  0  0  0
   -2.2326    4.9475    3.9970 C   0  0  0  0  0  0  0  0  0  0  0  0
   -2.0864    4.7235    2.4993 C   0  0  0  0  0  0  0  0  0  0  0  0
   -3.0496    4.9704    1.7578 O   0  0  0  0  0  0  0  0  0  0  0  0
   -1.0996    5.8240    4.4421 C   0  0  0  0  0  0  0  0  0  0  0  0
   -1.1961    6.0534    5.9213 C   0  0  0  0  0  0  0  0  0  0  0  0
   -0.0904    6.2634    6.7024 N   0  0  0  0  0  0  0  0  0  0  0  0
   -2.2659    6.1121    6.8021 C   0  0  0  0  0  0  0  0  0  0  0  0
   -0.5561    6.4319    7.9785 C   0  0  0  0  0  0  0  0  0  0  0  0
   -1.8648    6.3418    8.0441 N   0  0  0  0  0  0  0  0  0  0  0  0
   -0.0310    7.9307   -1.6730 C   0  0  0  0  0  0  0  0  0  0  0  0
   -0.4625    7.2824   -2.6454 O   0  0  0  0  0  0  0  0  0  0  0  0
   -0.1732    9.1678   -1.6353 O   0  0  0  0  0  0  0  0  0  0  0  0
    1.2584    2.4506    0.9260 O   0  0  0  0  0  0  0  0  0  0  0  0
    0.6603    7.2211   -0.5466 C   0  0  0  0  0  0  0  0  0  0  0  0
    0.0846    2.5106    0.5120 C   0  0  0  0  0  0  0  0  0  0  0  0
   -0.6330    3.8543    0.5677 C   0  0  0  0  0  0  0  0  0  0  0  0
    0.3058    4.8494   -0.0475 C   0  0  0  0  0  0  0  0  0  0  0  0
   -0.2785    6.2260    0.0686 C   0  0  0  0  0  0  0  0  0  0  0  0
   -0.8179    4.2017    1.9772 N   0  0  0  0  0  0  0  0  0  0  0  0
  1  3  2  0
  1  4  1  0
  1 15  1  0
  2  4  1  0
  2 44  1  0
  4  5  1  0
  5  8  1  0
  6  8  1  0
  6  7  1  0
  7  9  1  0
  9 13  1  0
  9 14  2  0
 10 14  1  0
 10 11  2  0
 10 12  1  0
 15 16  1  0
 15 19  1  0
 16 17  1  0
 16 20  1  0
 17 18  1  0
 18 19  1  0
 20 21  2  0
 20 22  1  0
 22 23  1  0
 23 24  1  0
 23 26  1  0
 24 25  2  0
 24 29  1  0
 26 27  1  0
 27 28  1  0
 27 29  1  0
 29 30  1  0
 30 31  1  0
 30 33  1  0
 31 32  2  0
 31 48  1  0
 33 34  1  0
 34 35  1  0
 34 36  2  0
 35 37  1  0
 36 38  1  0
 37 38  2  0
 39 40  2  0
 39 41  1  0
 39 43  1  0
 42 44  2  0
 43 47  1  0
 44 45  1  0
 45 46  1  0
 45 48  1  0
 46 47  1  0
M  CHG  2  14   1  41  -1
M  END
>  <i_m_stars>  (32) 
3

>  <s_m_entry_id>  (32) 
1058

>  <s_m_entry_name>  (32) 
208refs.148

>  <s_m_Source_Path>  (32) 
/nfs/zone2/sindhikara/master/src/validation_scripts/tests/prime/macrocycle/BMS208

>  <s_m_Source_File>  (32) 
208refs.maegz

>  <i_m_Source_File_Index>  (32) 
148

>  <r_lp_tautomer_probability>  (32) 
0.499999999999999

>  <r_epik_Ionization_Penalty>  (32) 
  0.3522

>  <r_epik_Ionization_Penalty_Charging>  (32) 
  0.3522

>  <r_epik_Ionization_Penalty_Neutral>  (32) 
  0.0001

>  <r_epik_State_Penalty>  (32) 
  0.6509

>  <i_epik_Tot_Q>  (32) 
0

>  <i_lp_mmshare_version>  (32) 
32003

>  <r_pdb_PDB_RESOLUTION>  (32) 
1.75

>  <r_pdb_PDB_EXPDTA_PH>  (32) 
4.6

>  <s_user_comment>  (32) 
Paired zwitterion among side chains. Valence wrong on succimide? converted to alcohol. His is protonated

>  <r_f3d_energy>  (32) 
120.784219700698

>  <s_epik_Chemistry_Notes>  (32) 
This compound has an imine and may undergo hydrolysis. This compound contains an acetal/aminal-like group ( X-CH(R)-Y where X, Y are N, S, or O) that may be acid/base labile, releasing an aldehyde.

>  <s_user_Group>  (32) 
A1

>  <s_user_mc_backbone_quality>  (32) 
A

>  <s_user_overall_b-factors>  (32) 
A

>  <s_user_ligand_name>  (32) 
argadom

>  <s_user_rep>  (32) 
1

>  <s_m_subgroup_title>  (32) 
208refs

>  <s_m_subgroupid>  (32) 
208refs

>  <b_m_subgroup_collapsed>  (32) 
0

$$$$
1WUA
     RDKit          3D

 76 76  0  0  1  0  0  0  0  0999 V2000
   14.2270   54.3824   44.1653 O   0  0  0  0  0  0  0  0  0  0  0  0
   14.4870   54.5094   42.9893 C   0  0  0  0  0  0  0  0  0  0  0  0
   13.4310   54.3614   41.9253 C   0  0  0  0  0  0  0  0  0  0  0  0
   12.0320   54.5504   42.5203 C   0  0  0  0  0  0  0  0  0  0  0  0
   11.6080   53.4184   43.2923 O   0  0  0  0  0  0  0  0  0  0  0  0
   11.0370   53.7384   44.5613 C   0  0  0  0  0  0  0  0  0  0  0  0
   13.5160   53.0574   41.2033 N   0  0  0  0  0  0  0  0  0  0  0  0
   13.7150   51.8744   42.0723 C   0  0  0  0  0  0  0  0  0  0  0  0
   14.5790   53.0754   40.1773 C   0  0  0  0  0  0  0  0  0  0  0  0
   15.8460   54.7824   42.5943 O   0  0  0  0  0  0  0  0  0  0  0  0
   16.8290   54.9884   43.6063 C   0  0  0  0  0  0  0  0  0  0  0  0
   17.7670   56.0054   42.9683 C   0  0  0  0  0  0  0  0  0  0  0  0
   17.0830   57.3484   42.9573 C   0  0  0  0  0  0  0  0  0  0  0  0
   17.5950   58.2644   43.7503 C   0  0  0  0  0  0  0  0  0  0  0  0
   17.1000   59.6014   43.9573 C   0  0  0  0  0  0  0  0  0  0  0  0
   17.3000   60.7014   44.6393 C   0  0  0  0  0  0  0  0  0  0  0  0
   16.5540   61.9344   44.7033 C   0  0  0  0  0  0  0  0  0  0  0  0
   15.6540   62.3214   43.9813 O   0  0  0  0  0  0  0  0  0  0  0  0
   16.9880   62.6024   45.8853 O   0  0  0  0  0  0  0  0  0  0  0  0
   17.5060   53.6624   43.9593 C   0  0  0  0  0  0  0  0  0  0  0  0
   18.1200   53.0274   42.7123 C   0  0  0  0  0  0  0  0  0  0  0  0
   18.5720   53.7434   45.0683 C   0  0  0  0  0  0  0  0  0  0  0  0
   19.1570   52.4374   45.2793 O   0  0  0  0  0  0  0  0  0  0  0  0
   18.0840   54.3144   46.4033 C   0  0  0  0  0  0  0  0  0  0  0  0
   19.2090   54.2174   47.4323 C   0  0  0  0  0  0  0  0  0  0  0  0
   16.7950   53.6344   46.8903 C   0  0  0  0  0  0  0  0  0  0  0  0
   16.3510   54.0494   48.2893 C   0  0  0  0  0  0  0  0  0  0  0  0
   16.0180   55.5384   48.4723 C   0  0  0  0  0  0  0  0  0  0  0  0
   15.6090   55.7254   49.8313 O   0  0  0  0  0  0  0  0  0  0  0  0
   15.4530   57.0794   50.2623 C   0  0  0  0  0  0  0  0  0  0  0  0
   14.9590   55.9834   47.4873 C   0  0  0  0  0  0  0  0  0  0  0  0
   13.6420   55.2554   47.5033 C   0  0  0  0  0  0  0  0  0  0  0  0
   15.2140   56.9914   46.6133 C   0  0  0  0  0  0  0  0  0  0  0  0
   14.2520   57.5134   45.5533 C   0  0  0  0  0  0  0  0  0  0  0  0
   13.9890   59.0104   45.7133 C   0  0  0  0  0  0  0  0  0  0  0  0
   13.2790   59.5694   44.4823 C   0  0  0  0  0  0  0  0  0  0  0  0
   13.1930   59.2164   47.0003 C   0  0  0  0  0  0  0  0  0  0  0  0
   12.8170   60.6564   47.3343 C   0  0  0  0  0  0  0  0  0  0  0  0
   12.0060   60.5984   48.5193 O   0  0  0  0  0  0  0  0  0  0  0  0
   11.2620   61.7844   48.8273 C   0  0  0  0  0  0  0  0  0  0  0  0
   14.0480   61.4964   47.6253 C   0  0  0  0  0  0  0  0  0  0  0  0
   14.2090   62.7084   47.0973 C   0  0  0  0  0  0  0  0  0  0  0  0
   15.4380   63.5454   47.4373 C   0  0  0  0  0  0  0  0  0  0  0  0
   16.3480   63.8214   46.2373 C   0  0  0  0  0  0  0  0  0  0  0  0
   17.4770   64.8224   46.5293 C   0  0  0  0  0  0  0  0  0  0  0  0
   18.4260   64.3074   47.6183 C   0  0  0  0  0  0  0  0  0  0  0  0
   18.2320   65.1844   45.2403 C   0  0  0  0  0  0  0  0  0  0  0  0
   17.3230   65.7954   44.3033 O   0  0  0  0  0  0  0  0  0  0  0  0
   19.4510   66.1134   45.4293 C   0  0  0  0  0  0  0  0  0  0  0  0
   20.2580   66.2094   44.1333 C   0  0  0  0  0  0  0  0  0  0  0  0
   19.0620   67.5074   45.9233 C   0  0  0  0  0  0  0  0  0  0  0  0
   20.2640   68.2614   46.4933 C   0  0  0  0  0  0  0  0  0  0  0  0
   19.9430   69.7384   46.7163 C   0  0  0  0  0  0  0  0  0  0  0  0
   18.8360   69.8664   47.6153 O   0  0  0  0  0  0  0  0  0  0  0  0
   17.6290   70.4254   47.0453 C   0  0  0  0  0  0  0  0  0  0  0  0
   16.4860   70.6974   47.9723 C   0  0  0  0  0  0  0  0  0  0  0  0
   16.0370   69.3424   48.5073 C   0  0  0  0  0  0  0  0  0  0  0  0
   15.4280   71.4574   47.2543 N   0  0  0  0  0  0  0  0  0  0  0  0
   14.5040   70.6054   46.4733 C   0  0  0  0  0  0  0  0  0  0  0  0
   14.6390   72.2684   48.2023 C   0  0  0  0  0  0  0  0  0  0  0  0
   17.5610   70.6304   45.8513 O   0  0  0  0  0  0  0  0  0  0  0  0
   21.1320   70.5014   47.2963 C   0  0  0  0  0  0  0  0  0  0  0  0
   21.3350   70.2174   48.7823 C   0  0  0  0  0  0  0  0  0  0  0  0
   21.0010   72.0074   47.0263 C   0  0  0  0  0  0  0  0  0  0  0  0
   20.9340   72.1444   45.5993 O   0  0  0  0  0  0  0  0  0  0  0  0
   19.8640   72.9044   45.0183 C   0  0  0  0  0  0  0  0  0  0  0  0
   19.0760   73.4624   45.7583 O   0  0  0  0  0  0  0  0  0  0  0  0
   19.8500   72.9324   43.5263 C   0  0  0  0  0  0  0  0  0  0  0  0
   22.1810   72.8384   47.5523 C   0  0  0  0  0  0  0  0  0  0  0  0
   22.0100   74.3034   47.1543 C   0  0  0  0  0  0  0  0  0  0  0  0
   23.5100   72.2894   47.0403 C   0  0  0  0  0  0  0  0  0  0  0  0
   24.4830   71.9754   47.9143 C   0  0  0  0  0  0  0  0  0  0  0  0
   25.6420   71.4774   47.6063 N   0  0  0  0  0  0  0  0  0  0  0  0
   25.9760   71.2334   46.2083 C   0  0  0  0  0  0  0  0  0  0  0  0
   26.4500   71.1684   48.5573 C   0  0  0  0  0  0  0  0  0  0  0  0
   27.5440   70.6204   48.3633 O   0  0  0  0  0  0  0  0  0  0  0  0
  1  2  2  0
  2  3  1  0
  2 10  1  0
  3  4  1  0
  3  7  1  0
  4  5  1  0
  5  6  1  0
  7  8  1  0
  7  9  1  0
 10 11  1  0
 11 12  1  0
 11 20  1  0
 12 13  1  0
 13 14  2  0
 14 15  1  0
 15 16  2  0
 16 17  1  0
 17 18  2  0
 17 19  1  0
 19 44  1  0
 20 21  1  0
 20 22  1  0
 22 23  1  0
 22 24  1  0
 24 25  1  0
 24 26  1  0
 26 27  1  0
 27 28  1  0
 28 29  1  0
 28 31  1  0
 29 30  1  0
 31 32  1  0
 31 33  2  0
 33 34  1  0
 34 35  1  0
 35 36  1  0
 35 37  1  0
 37 38  1  0
 38 39  1  0
 38 41  1  0
 39 40  1  0
 41 42  2  0
 42 43  1  0
 43 44  1  0
 44 45  1  0
 45 46  1  0
 45 47  1  0
 47 48  1  0
 47 49  1  0
 49 50  1  0
 49 51  1  0
 51 52  1  0
 52 53  1  0
 53 54  1  0
 53 62  1  0
 54 55  1  0
 55 56  1  0
 55 61  2  0
 56 57  1  0
 56 58  1  0
 58 59  1  0
 58 60  1  0
 62 63  1  0
 62 64  1  0
 64 65  1  0
 64 69  1  0
 65 66  1  0
 66 67  2  0
 66 68  1  0
 69 70  1  0
 69 71  1  0
 71 72  2  0
 72 73  1  0
 73 74  1  0
 73 75  1  0
 75 76  2  0
M  CHG  2   7   1  58   1
M  END
>  <s_m_entry_id>  (33) 
1086

>  <s_m_entry_name>  (33) 
1wua.1

>  <s_pdb_PDB_TITLE>  (33) 
THE STRUCTURE OF APLYRONINE A-ACTIN COMPLEX

>  <s_m_Source_Path>  (33) 
/nfs/zone2/sindhikara/master/src/validation_scripts/tests/prime/macrocycle/BMS208

>  <s_m_Source_File>  (33) 
208refs.maegz

>  <i_m_Source_File_Index>  (33) 
176

>  <s_pdb_PDB_ID>  (33) 
1WUA

>  <r_pdb_PDB_R>  (33) 
0.151

>  <r_pdb_PDB_Rfree>  (33) 
0.176

>  <r_pdb_PDB_RESOLUTION>  (33) 
1.45

>  <s_m_Molecular_formula>  (33) 
C59H103N3O14

>  <r_m_Molecular_weight>  (33) 
1078.49046

>  <i_m_Number_of_heavy_atoms>  (33) 
76

>  <i_m_Number_of_atoms>  (33) 
179

>  <s_user_Group>  (33) 
Example PDB

>  <s_user_Preparation>  (33) 
reference

>  <s_user_Primary_PMID>  (33) 
16406066                                                     

>  <s_user_Primary_DOI>  (33) 
10.1016/J.JMB.2005.12.031     

>  <s_user_Unique_SMILES>  (33) 
CO[C@H]1CC[C@@H](C)[C@@H](O)[C@H](C)[C@H](OC(=O)[C@@H]([NH+](C)C)COC)C\C=C\C=C\C(=O)O[C@@H](C\C=C\[C@H](OC)C[C@H](C)C/C=C1\C)[C@@H](C)[C@@H](O)[C@@H](C)CC[C@@H](OC(=O)[C@H](C)[NH+](C)C)[C@H](C)[C@H](OC(=O)C)[C@H](C)/C=C/N(C=O)C

>  <s_user_Source>  (33) 
PDB

>  <s_user_InChI1S_Key>  (33) 
InChIKey=JMXMEKJLQWJRHY-GDEZZODWSA-N

>  <s_user_Sample>  (33) 
TRAIN

>  <s_user_Name>  (33) 
Aplyronine A

>  <s_user_Microstate_Comment>  (33) 
both n,n-dimethyls are solvent exposed

>  <s_m_subgroup_title>  (33) 
208refs

>  <s_m_subgroupid>  (33) 
208refs

>  <b_m_subgroup_collapsed>  (33) 
0

$$$$
1XS7
     RDKit          3D

 52 53  0  0  1  0  0  0  0  0999 V2000
   51.1340   21.9440  105.9880 C   0  0  0  0  0  0  0  0  0  0  0  0
   52.4370   21.5240  105.2040 C   0  0  0  0  0  0  0  0  0  0  0  0
   52.4760   22.1680  103.7940 C   0  0  0  0  0  0  0  0  0  0  0  0
   52.6040   19.9750  105.0300 C   0  0  0  0  0  0  0  0  0  0  0  0
   50.9490   23.4400  106.1260 N   0  0  0  0  0  0  0  0  0  0  0  0
   51.6050   24.3760  106.9810 C   0  0  0  0  0  0  0  0  0  0  0  0
   51.2220   25.5500  106.8670 O   0  0  0  0  0  0  0  0  0  0  0  0
   52.6070   24.0220  107.9090 O   0  0  0  0  0  0  0  0  0  0  0  0
   53.8920   24.6710  107.8410 C   0  0  0  0  0  0  0  0  0  0  0  0
   51.0260   21.3160  107.4150 C   0  0  0  0  0  0  0  0  0  0  0  0
   51.9670   21.0430  108.1150 O   0  0  0  0  0  0  0  0  0  0  0  0
   49.7720   21.1330  107.8500 N   0  0  0  0  0  0  0  0  0  0  0  0
   49.3790   19.9010  108.5280 C   0  0  0  0  0  0  0  0  0  0  0  0
   48.9820   20.0990  110.0240 C   0  0  0  0  0  0  0  0  0  0  0  0
   50.1510   20.5130  110.9630 C   0  0  0  0  0  0  0  0  0  0  0  0
   49.9040   21.1390  111.9940 O   0  0  0  0  0  0  0  0  0  0  0  0
   51.4480   20.1180  110.6110 N   0  0  0  0  0  0  0  0  0  0  0  0
   48.1710   19.2970  107.7500 C   0  0  0  0  0  0  0  0  0  0  0  0
   47.1380   19.9670  107.5740 O   0  0  0  0  0  0  0  0  0  0  0  0
   54.6780   24.4640  109.1470 C   0  0  0  0  0  0  0  0  0  0  0  0
   54.7770   22.9740  109.5200 C   0  0  0  0  0  0  0  0  0  0  0  0
   53.6010   22.4770  110.3890 C   0  0  0  0  0  0  0  0  0  0  0  0
   53.7610   20.9810  110.7070 C   0  0  0  0  0  0  0  0  0  0  0  0
   52.6040   20.4500  111.5040 C   0  0  0  0  0  0  0  0  0  0  0  0
   48.3780   17.9820  107.2780 N   0  0  0  0  0  0  0  0  0  0  0  0
   47.3550   17.2190  106.4860 C   0  0  0  0  0  0  0  0  0  0  0  0
   46.6740   16.1670  107.4360 C   0  0  0  0  0  0  0  0  0  0  0  0
   47.5090   15.8990  108.5840 O   0  0  0  0  0  0  0  0  0  0  0  0
   47.9670   16.5480  105.2070 C   0  0  0  0  0  0  0  0  0  0  0  0
   48.6840   17.5140  104.1880 C   0  0  0  0  0  0  0  0  0  0  0  0
   47.7420   18.6130  103.6260 C   0  0  0  0  0  0  0  0  0  0  0  0
   49.2680   16.7410  102.9860 C   0  0  0  0  0  0  0  0  0  0  0  0
   45.2510   16.6630  107.8600 C   0  0  0  0  0  0  0  0  0  0  0  0
   44.6990   16.6760  109.3370 C   0  0  0  0  0  0  0  0  0  0  0  0
   45.5330   17.4860  110.3460 C   0  0  0  0  0  0  0  0  0  0  0  0
   43.2550   17.2490  109.2880 C   0  0  0  0  0  0  0  0  0  0  0  0
   43.0300   18.4640  109.3390 O   0  0  0  0  0  0  0  0  0  0  0  0
   42.2310   16.2660  109.1380 N   0  0  0  0  0  0  0  0  0  0  0  0
   40.7380   16.5220  109.0140 C   0  0  0  0  0  0  0  0  0  0  0  0
   39.9290   15.1880  108.7480 C   0  0  0  0  0  0  0  0  0  0  0  0
   40.2870   17.2560  110.3100 C   0  0  0  0  0  0  0  0  0  0  0  0
   40.7410   16.9340  111.4010 O   0  0  0  0  0  0  0  0  0  0  0  0
   40.3700   14.4800  107.4640 C   0  0  0  0  0  0  0  0  0  0  0  0
   38.4280   15.4120  108.6060 C   0  0  0  0  0  0  0  0  0  0  0  0
   39.3510   18.2790  110.0950 N   0  0  0  0  0  0  0  0  0  0  0  0
   38.7740   19.1170  111.1790 C   0  0  0  0  0  0  0  0  0  0  0  0
   38.2260   20.4530  110.6640 C   0  0  0  0  0  0  0  0  0  0  0  0
   36.8190   20.6780  110.4390 C   0  0  0  0  0  0  0  0  0  0  0  0
   36.3350   21.9450  109.9570 C   0  0  0  0  0  0  0  0  0  0  0  0
   37.2600   23.0130  109.6980 C   0  0  0  0  0  0  0  0  0  0  0  0
   38.6620   22.8060  109.9160 C   0  0  0  0  0  0  0  0  0  0  0  0
   39.1320   21.5440  110.3960 C   0  0  0  0  0  0  0  0  0  0  0  0
  1  2  1  0
  1  5  1  0
  1 10  1  0
  2  3  1  0
  2  4  1  0
  5  6  1  0
  6  7  2  0
  6  8  1  0
  8  9  1  0
  9 20  1  0
 10 11  2  0
 10 12  1  0
 12 13  1  0
 13 14  1  0
 13 18  1  0
 14 15  1  0
 15 16  2  0
 15 17  1  0
 17 24  1  0
 18 19  2  0
 18 25  1  0
 20 21  1  0
 21 22  1  0
 22 23  1  0
 23 24  1  0
 25 26  1  0
 26 27  1  0
 26 29  1  0
 27 28  1  0
 27 33  1  0
 29 30  1  0
 30 31  1  0
 30 32  1  0
 33 34  1  0
 34 35  1  0
 34 36  1  0
 36 37  2  0
 36 38  1  0
 38 39  1  0
 39 40  1  0
 39 41  1  0
 40 43  1  0
 40 44  1  0
 41 42  2  0
 41 45  1  0
 45 46  1  0
 46 47  1  0
 47 48  2  0
 47 52  1  0
 48 49  1  0
 49 50  2  0
 50 51  1  0
 51 52  2  0
M  END
>  <s_m_entry_id>  (34) 
1087

>  <s_m_entry_name>  (34) 
1xs7.1

>  <s_pdb_PDB_TITLE>  (34) 
CRYSTAL STRUCTURE OF A CYCLOAMIDE-URETHANE-DERIVED NOVEL INHIBITOR BOUND TO HUMAN BRAIN MEMAPSIN 2 (BETA-SECRETASE).

>  <s_m_Source_Path>  (34) 
/nfs/zone2/sindhikara/master/src/validation_scripts/tests/prime/macrocycle/BMS208

>  <s_m_Source_File>  (34) 
208refs.maegz

>  <i_m_Source_File_Index>  (34) 
177

>  <s_pdb_PDB_ID>  (34) 
1XS7

>  <r_pdb_PDB_RESOLUTION>  (34) 
2.8

>  <s_m_Molecular_formula>  (34) 
C38H62N6O8

>  <r_m_Molecular_weight>  (34) 
730.95324

>  <i_m_Number_of_heavy_atoms>  (34) 
52

>  <i_m_Number_of_atoms>  (34) 
114

>  <s_user_Group>  (34) 
BACE

>  <s_user_Preparation>  (34) 
reference

>  <s_user_Primary_PMID>  (34) 
15582402                                                     

>  <s_user_Primary_DOI>  (34) 
10.1016/J.BMCL.2004.10.084     

>  <s_user_Unique_SMILES>  (34) 
c1ccccc1CNC(=O)[C@H](C(C)C)NC(=O)[C@H](C)C[C@H](O)[C@H](CC(C)C)NC(=O)[C@@H](N2)CC(=O)NCCCCCCOC(=O)N[C@H](C2=O)C(C)C

>  <s_user_Source>  (34) 
PDB

>  <s_user_InChI1S_Key>  (34) 
InChIKey=QJAPFAZHNSZLJE-CWURXVSKSA-N

>  <s_user_Sample>  (34) 
TRAIN

>  <s_user_Microstate_Comment>  (34) 
cis-carbamate

>  <s_m_subgroup_title>  (34) 
208refs

>  <s_m_subgroupid>  (34) 
208refs

>  <b_m_subgroup_collapsed>  (34) 
0

$$$$
1XVR-D_conf1
     RDKit          3D

 77 82  0  0  1  0  0  0  0  0999 V2000
   -5.2928    8.7536   -2.7270 N   0  0  0  0  0  0  0  0  0  0  0  0
   -5.4087    7.9409   -1.5197 C   0  0  0  0  0  0  0  0  0  0  0  0
   -5.4702    6.4900   -1.9346 C   0  0  0  0  0  0  0  0  0  0  0  0
   -6.4007    5.7752   -1.5108 O   0  0  0  0  0  0  0  0  0  0  0  0
   -4.2484    8.2231   -0.6214 C   0  0  0  0  0  0  0  0  0  0  0  0
   -4.3447    7.6135    0.5838 O   0  0  0  0  0  0  0  0  0  0  0  0
   -4.4506    5.9470   -2.8409 N   0  0  0  0  0  0  0  0  0  0  0  0
   -4.4749    4.5452   -3.2706 C   0  0  0  0  0  0  0  0  0  0  0  0
   -4.0304    3.6481   -2.1328 C   0  0  0  0  0  0  0  0  0  0  0  0
   -4.7811    2.7229   -1.7770 O   0  0  0  0  0  0  0  0  0  0  0  0
   -3.5345    4.3707   -4.4261 C   0  0  0  0  0  0  0  0  0  0  0  0
   -2.7420    3.8965   -1.4792 N   0  0  0  0  0  0  0  0  0  0  0  0
   -2.2947    3.1812   -0.2870 C   0  0  0  0  0  0  0  0  0  0  0  0
   -3.2150    3.2840    0.8977 C   0  0  0  0  0  0  0  0  0  0  0  0
   -3.9482    4.9057    0.9241 S   0  0  0  0  0  0  0  0  0  0  0  0
   -5.5809    4.2422    0.6748 C   0  0  0  0  0  0  0  0  0  0  0  0
   -1.8704    4.9299   -2.0306 C   0  0  0  0  0  0  0  0  0  0  0  0
   -1.7977    1.7718   -0.4808 C   0  0  0  0  0  0  0  0  0  0  0  0
   -2.5444    0.9250   -1.0093 O   0  0  0  0  0  0  0  0  0  0  0  0
   -0.4580    1.3937    0.0000 N   0  0  0  0  0  0  0  0  0  0  0  0
    0.4330    2.4120    0.5485 C   0  0  0  0  0  0  0  0  0  0  0  0
    0.0000    0.0000    0.0000 C   0  0  0  0  0  0  0  0  0  0  0  0
    1.5000    0.0000    0.0000 C   0  0  0  0  0  0  0  0  0  0  0  0
    2.0000    0.7071   -1.2247 C   0  0  0  0  0  0  0  0  0  0  0  0
    2.0000   -1.4142   -0.0000 C   0  0  0  0  0  0  0  0  0  0  0  0
   -0.4454   -0.5679    1.3407 C   0  0  0  0  0  0  0  0  0  0  0  0
   -1.4195   -1.3516    1.3533 O   0  0  0  0  0  0  0  0  0  0  0  0
    2.2422   -0.5849    4.0897 N   0  0  0  0  0  0  0  0  0  0  0  0
    0.9598   -0.3192    4.7349 C   0  0  0  0  0  0  0  0  0  0  0  0
    1.0067    1.0715    5.3201 C   0  0  0  0  0  0  0  0  0  0  0  0
    1.9925    1.7989    5.0760 O   0  0  0  0  0  0  0  0  0  0  0  0
   -0.1409   -0.5558    3.7511 C   0  0  0  0  0  0  0  0  0  0  0  0
    0.2152   -0.2004    2.4876 O   0  0  0  0  0  0  0  0  0  0  0  0
   -0.0816    1.5401    6.1892 N   0  0  0  0  0  0  0  0  0  0  0  0
   -0.0548    2.8704    6.8073 C   0  0  0  0  0  0  0  0  0  0  0  0
   -0.3192    3.9333    5.7695 C   0  0  0  0  0  0  0  0  0  0  0  0
    0.6365    4.5962    5.3230 O   0  0  0  0  0  0  0  0  0  0  0  0
    1.2792    3.1164    7.4477 C   0  0  0  0  0  0  0  0  0  0  0  0
   -1.6925    4.1445    5.2747 N   0  0  0  0  0  0  0  0  0  0  0  0
   -1.9789    5.0894    4.1934 C   0  0  0  0  0  0  0  0  0  0  0  0
   -1.5288    4.5043    2.8797 C   0  0  0  0  0  0  0  0  0  0  0  0
   -2.3962    2.9998    2.4529 S   0  0  0  0  0  0  0  0  0  0  0  0
   -2.7533    3.3280    5.8573 C   0  0  0  0  0  0  0  0  0  0  0  0
   -3.3983    5.6075    4.0583 C   0  0  0  0  0  0  0  0  0  0  0  0
   -4.3409    5.0239    4.6191 O   0  0  0  0  0  0  0  0  0  0  0  0
   -3.6461    6.8069    3.2300 N   0  0  0  0  0  0  0  0  0  0  0  0
   -2.4917    7.4874    2.6507 C   0  0  0  0  0  0  0  0  0  0  0  0
   -4.9970    7.3030    2.9804 C   0  0  0  0  0  0  0  0  0  0  0  0
   -5.4133    8.2320    4.0820 C   0  0  0  0  0  0  0  0  0  0  0  0
   -4.4646    9.3923    4.1429 C   0  0  0  0  0  0  0  0  0  0  0  0
   -5.3906    7.4984    5.3902 C   0  0  0  0  0  0  0  0  0  0  0  0
   -5.0661    8.0598    1.6613 C   0  0  0  0  0  0  0  0  0  0  0  0
   -5.7912    9.0765    1.5977 O   0  0  0  0  0  0  0  0  0  0  0  0
   -6.9925   10.0643   -5.5279 N   0  0  0  0  0  0  0  0  0  0  0  0
   -5.9333    9.5696   -4.8295 C   0  0  0  0  0  0  0  0  0  0  0  0
   -4.6133    9.8840   -5.1604 C   0  0  0  0  0  0  0  0  0  0  0  0
   -4.3037   10.7048   -6.2019 N   0  0  0  0  0  0  0  0  0  0  0  0
   -5.1062   12.0723   -8.0120 C   0  0  0  0  0  0  0  0  0  0  0  0
   -6.1635   12.5994   -8.7520 C   0  0  0  0  0  0  0  0  0  0  0  0
   -7.4781   12.2862   -8.4225 C   0  0  0  0  0  0  0  0  0  0  0  0
   -7.7539   11.4416   -7.3483 C   0  0  0  0  0  0  0  0  0  0  0  0
   -6.7053   10.8915   -6.5790 C   0  0  0  0  0  0  0  0  0  0  0  0
   -5.3522   11.2138   -6.9181 C   0  0  0  0  0  0  0  0  0  0  0  0
   -6.2280    8.6605   -3.6732 C   0  0  0  0  0  0  0  0  0  0  0  0
   -7.2005    7.9158   -3.5861 O   0  0  0  0  0  0  0  0  0  0  0  0
    4.6503   -0.4455    2.8873 N   0  0  0  0  0  0  0  0  0  0  0  0
    4.4907   -1.2401    3.9817 C   0  0  0  0  0  0  0  0  0  0  0  0
    5.4208   -2.2228    4.3281 C   0  0  0  0  0  0  0  0  0  0  0  0
    6.5450   -2.4472    3.5929 N   0  0  0  0  0  0  0  0  0  0  0  0
    7.8697   -1.8371    1.6790 C   0  0  0  0  0  0  0  0  0  0  0  0
    8.0693   -1.0436    0.5503 C   0  0  0  0  0  0  0  0  0  0  0  0
    7.1430   -0.0650    0.2053 C   0  0  0  0  0  0  0  0  0  0  0  0
    6.0040    0.1340    0.9841 C   0  0  0  0  0  0  0  0  0  0  0  0
    5.7728   -0.6532    2.1335 C   0  0  0  0  0  0  0  0  0  0  0  0
    6.7263   -1.6604    2.4886 C   0  0  0  0  0  0  0  0  0  0  0  0
    3.2658   -1.0276    4.8210 C   0  0  0  0  0  0  0  0  0  0  0  0
    3.1906   -1.2287    6.0302 O   0  0  0  0  0  0  0  0  0  0  0  0
  1  2  1  0
  1 64  1  0
  2  3  1  0
  2  5  1  0
  3  4  2  0
  3  7  1  0
  5  6  1  0
  6 52  1  0
  7  8  1  0
  8  9  1  0
  8 11  1  0
  9 10  2  0
  9 12  1  0
 12 13  1  0
 12 17  1  0
 13 14  1  0
 13 18  1  0
 14 15  1  0
 14 42  1  0
 15 16  1  0
 18 19  2  0
 18 20  1  0
 20 21  1  0
 20 22  1  0
 22 23  1  0
 22 26  1  0
 23 24  1  0
 23 25  1  0
 26 27  2  0
 26 33  1  0
 28 29  1  0
 28 76  1  0
 29 30  1  0
 29 32  1  0
 30 31  2  0
 30 34  1  0
 32 33  1  0
 34 35  1  0
 35 36  1  0
 35 38  1  0
 36 37  2  0
 36 39  1  0
 39 40  1  0
 39 43  1  0
 40 41  1  0
 40 44  1  0
 41 42  1  0
 44 45  2  0
 44 46  1  0
 46 47  1  0
 46 48  1  0
 48 49  1  0
 48 52  1  0
 49 50  1  0
 49 51  1  0
 52 53  2  0
 54 55  2  0
 54 62  1  0
 55 56  1  0
 55 64  1  0
 56 57  2  0
 57 63  1  0
 58 59  1  0
 58 63  2  0
 59 60  2  0
 60 61  1  0
 61 62  2  0
 62 63  1  0
 64 65  2  0
 66 67  2  0
 66 74  1  0
 67 68  1  0
 67 76  1  0
 68 69  2  0
 69 75  1  0
 70 71  1  0
 70 75  2  0
 71 72  2  0
 72 73  1  0
 73 74  2  0
 74 75  1  0
 76 77  2  0
M  END
>  <i_m_stars>  (35) 
3

>  <s_m_entry_id>  (35) 
1051

>  <s_m_entry_name>  (35) 
208refs.141

>  <s_m_Source_Path>  (35) 
/nfs/zone2/sindhikara/master/src/validation_scripts/tests/prime/macrocycle/BMS208

>  <s_m_Source_File>  (35) 
208refs.maegz

>  <i_m_Source_File_Index>  (35) 
141

>  <r_lp_tautomer_probability>  (35) 
1

>  <r_epik_Ionization_Penalty>  (35) 
  0.0010

>  <r_epik_Ionization_Penalty_Charging>  (35) 
  0.0000

>  <r_epik_Ionization_Penalty_Neutral>  (35) 
  0.0010

>  <r_epik_State_Penalty>  (35) 
  0.0000

>  <i_epik_Tot_Q>  (35) 
0

>  <i_lp_mmshare_version>  (35) 
32003

>  <r_pdb_PDB_RESOLUTION>  (35) 
1.4

>  <r_pdb_PDB_EXPDTA_PH>  (35) 
6

>  <s_user_comment>  (35) 
good

>  <r_f3d_energy>  (35) 
1024.17084810026

>  <s_epik_Chemistry_Notes>  (35) 
This compound has an ester and may undergo hydrolysis at high or low pH. This compound contains an acetal/aminal-like group ( X-CH(R)-Y where X, Y are N, S, or O) that may be acid/base labile, releasing an aldehyde.

>  <s_user_Group>  (35) 
A1

>  <s_user_mc_backbone_quality>  (35) 
A

>  <s_user_overall_b-factors>  (35) 
A

>  <s_user_ligand_name>  (35) 
ECHINOMYCIN 

>  <s_user_mc_bb_conf_conserved>  (35) 
A

>  <s_user_rep>  (35) 
1

>  <s_m_subgroup_title>  (35) 
208refs

>  <s_m_subgroupid>  (35) 
208refs

>  <b_m_subgroup_collapsed>  (35) 
0

$$$$
1YET
     RDKit          3D

 40 41  0  0  1  0  0  0  0  0999 V2000
   14.1283   57.8146   48.7422 O   0  0  0  0  0  0  0  0  0  0  0  0
   13.2823   61.4166   43.2332 O   0  0  0  0  0  0  0  0  0  0  0  0
   13.6613   64.0866   43.8432 O   0  0  0  0  0  0  0  0  0  0  0  0
   14.6303   65.5476   42.3582 O   0  0  0  0  0  0  0  0  0  0  0  0
   20.6363   65.3256   45.0162 O   0  0  0  0  0  0  0  0  0  0  0  0
   21.0983   62.5386   44.3532 O   0  0  0  0  0  0  0  0  0  0  0  0
   18.9383   63.9846   49.1152 O   0  0  0  0  0  0  0  0  0  0  0  0
   16.3353   64.2876   49.8482 O   0  0  0  0  0  0  0  0  0  0  0  0
   17.8053   59.3556   48.7152 O   0  0  0  0  0  0  0  0  0  0  0  0
   15.2823   59.6426   49.4122 N   0  0  0  0  0  0  0  0  0  0  0  0
   12.4223   65.6176   42.8422 N   0  0  0  0  0  0  0  0  0  0  0  0
   14.9103   58.6856   48.4432 C   0  0  0  0  0  0  0  0  0  0  0  0
   15.5713   58.7306   47.0992 C   0  0  0  0  0  0  0  0  0  0  0  0
   15.4063   59.8236   46.3092 C   0  0  0  0  0  0  0  0  0  0  0  0
   15.9863   60.0046   44.9822 C   0  0  0  0  0  0  0  0  0  0  0  0
   15.5493   60.8646   44.0392 C   0  0  0  0  0  0  0  0  0  0  0  0
   14.4023   61.8086   44.1242 C   0  0  0  0  0  0  0  0  0  0  0  0
   14.8043   63.3026   43.7422 C   0  0  0  0  0  0  0  0  0  0  0  0
   15.9673   63.9236   44.7072 C   0  0  0  0  0  0  0  0  0  0  0  0
   17.0993   64.3716   44.1872 C   0  0  0  0  0  0  0  0  0  0  0  0
   18.2603   65.0166   44.8832 C   0  0  0  0  0  0  0  0  0  0  0  0
   19.6253   64.4666   44.4382 C   0  0  0  0  0  0  0  0  0  0  0  0
   19.8363   63.0146   44.8692 C   0  0  0  0  0  0  0  0  0  0  0  0
   19.8913   62.8276   46.3822 C   0  0  0  0  0  0  0  0  0  0  0  0
   20.0563   61.3716   46.8782 C   0  0  0  0  0  0  0  0  0  0  0  0
   19.8553   61.2216   48.4262 C   0  0  0  0  0  0  0  0  0  0  0  0
   18.4753   61.6136   48.8672 C   0  0  0  0  0  0  0  0  0  0  0  0
   18.0523   62.8456   49.1712 C   0  0  0  0  0  0  0  0  0  0  0  0
   16.6663   63.1366   49.5822 C   0  0  0  0  0  0  0  0  0  0  0  0
   15.6943   62.0416   49.6612 C   0  0  0  0  0  0  0  0  0  0  0  0
   16.0643   60.7946   49.3772 C   0  0  0  0  0  0  0  0  0  0  0  0
   17.4763   60.5126   48.9682 C   0  0  0  0  0  0  0  0  0  0  0  0
   16.3573   57.5146   46.7192 C   0  0  0  0  0  0  0  0  0  0  0  0
   13.5473   60.2676   42.3532 C   0  0  0  0  0  0  0  0  0  0  0  0
   13.6633   65.1316   42.9512 C   0  0  0  0  0  0  0  0  0  0  0  0
   15.6333   63.9886   46.1992 C   0  0  0  0  0  0  0  0  0  0  0  0
   18.1723   66.5276   44.5732 C   0  0  0  0  0  0  0  0  0  0  0  0
   21.0933   62.3496   42.9032 C   0  0  0  0  0  0  0  0  0  0  0  0
   19.1453   60.4616   46.1062 C   0  0  0  0  0  0  0  0  0  0  0  0
   20.3153   63.9786   49.5192 C   0  0  0  0  0  0  0  0  0  0  0  0
  1 12  2  0
  2 17  1  0
  2 34  1  0
  3 18  1  0
  3 35  1  0
  4 35  2  0
  5 22  1  0
  6 23  1  0
  6 38  1  0
  7 28  1  0
  7 40  1  0
  8 29  2  0
  9 32  2  0
 10 12  1  0
 10 31  1  0
 11 35  1  0
 12 13  1  0
 13 14  2  0
 13 33  1  0
 14 15  1  0
 15 16  2  0
 16 17  1  0
 17 18  1  0
 18 19  1  0
 19 20  2  0
 19 36  1  0
 20 21  1  0
 21 22  1  0
 21 37  1  0
 22 23  1  0
 23 24  1  0
 24 25  1  0
 25 26  1  0
 25 39  1  0
 26 27  1  0
 27 28  2  0
 27 32  1  0
 28 29  1  0
 29 30  1  0
 30 31  2  0
 31 32  1  0
M  END
>  <s_m_entry_id>  (36) 
1088

>  <s_m_entry_name>  (36) 
1yet.1

>  <s_pdb_PDB_TITLE>  (36) 
GELDANAMYCIN BOUND TO THE HSP90 GELDANAMYCIN-BINDING DOMAIN

>  <s_m_Source_Path>  (36) 
/nfs/zone2/sindhikara/master/src/validation_scripts/tests/prime/macrocycle/BMS208

>  <s_m_Source_File>  (36) 
208refs.maegz

>  <i_m_Source_File_Index>  (36) 
178

>  <s_pdb_PDB_ID>  (36) 
1YET

>  <r_pdb_PDB_R>  (36) 
0.193

>  <r_pdb_PDB_RESOLUTION>  (36) 
1.9

>  <s_m_Molecular_formula>  (36) 
C29H40N2O9

>  <r_m_Molecular_weight>  (36) 
560.65015

>  <i_m_Number_of_heavy_atoms>  (36) 
40

>  <i_m_Number_of_atoms>  (36) 
80

>  <s_user_Group>  (36) 
Example PDB

>  <s_user_Preparation>  (36) 
reference

>  <s_user_Primary_PMID>  (36) 
9108479                                                      

>  <s_user_Primary_DOI>  (36) 
10.1016/S0092-8674(00)80203-2    

>  <s_user_Unique_SMILES>  (36) 
C[C@H](C1)C[C@H](OC)[C@H](O)[C@@H](C)/C=C(\C)[C@H](OC(=O)N)[C@@H](OC)\C=C/C=C(\C)C(=O)NC(C2=O)=CC(=O)C(=C12)OC

>  <s_user_Source>  (36) 
PDB

>  <s_user_InChI1S_Key>  (36) 
InChIKey=QTQAWLPCGQOSGP-KSRBKZBZSA-N

>  <s_user_Sample>  (36) 
TRAIN

>  <s_user_Name>  (36) 
Geldanamycin

>  <s_user_Microstate_Comment>  (36) 
cis-amide

>  <s_m_subgroup_title>  (36) 
208refs

>  <s_m_subgroupid>  (36) 
208refs

>  <b_m_subgroup_collapsed>  (36) 
0

$$$$
1YND
     RDKit          3D

 78 82  0  0  1  0  0  0  0  0999 V2000
   60.2030   49.1890   58.2510 O   0  0  0  0  0  0  0  0  0  0  0  0
   59.6520   48.9720   57.1610 C   0  0  0  0  0  0  0  0  0  0  0  0
   59.1570   50.1440   56.2550 C   0  0  0  0  0  0  0  0  0  0  0  0
   60.3470   50.8240   55.5700 C   0  0  0  0  0  0  0  0  0  0  0  0
   61.3150   51.5050   56.4900 C   0  0  0  0  0  0  0  0  0  0  0  0
   58.2120   49.6490   55.1530 C   0  0  0  0  0  0  0  0  0  0  0  0
   59.4860   47.7070   56.7620 N   0  0  0  0  0  0  0  0  0  0  0  0
   58.8040   47.2670   55.5280 C   0  0  0  0  0  0  0  0  0  0  0  0
   57.4300   46.9390   55.8330 O   0  0  0  0  0  0  0  0  0  0  0  0
   58.7500   48.4010   54.4820 C   0  0  0  0  0  0  0  0  0  0  0  0
   57.8040   48.0050   53.3260 C   0  0  0  0  0  0  0  0  0  0  0  0
   59.4600   45.9680   54.9560 C   0  0  0  0  0  0  0  0  0  0  0  0
   60.9320   46.2150   54.6180 C   0  0  0  0  0  0  0  0  0  0  0  0
   59.2940   44.7920   55.9650 C   0  0  0  0  0  0  0  0  0  0  0  0
   60.0360   45.0250   57.1780 O   0  0  0  0  0  0  0  0  0  0  0  0
   57.7840   44.6060   56.3180 C   0  0  0  0  0  0  0  0  0  0  0  0
   57.6190   43.4390   57.3350 C   0  0  0  0  0  0  0  0  0  0  0  0
   57.1920   45.9620   56.8100 C   0  0  0  0  0  0  0  0  0  0  0  0
   55.7210   45.7850   57.1450 C   0  0  0  0  0  0  0  0  0  0  0  0
   55.1830   47.0080   57.8950 C   0  0  0  0  0  0  0  0  0  0  0  0
   55.4680   46.8190   59.2870 O   0  0  0  0  0  0  0  0  0  0  0  0
   53.6580   47.1190   57.6910 C   0  0  0  0  0  0  0  0  0  0  0  0
   52.9520   45.8760   58.2200 C   0  0  0  0  0  0  0  0  0  0  0  0
   53.1220   48.3700   58.3910 C   0  0  0  0  0  0  0  0  0  0  0  0
   53.5040   49.6680   57.6810 C   0  0  0  0  0  0  0  0  0  0  0  0
   52.7510   49.7780   56.3270 C   0  0  0  0  0  0  0  0  0  0  0  0
   53.3550   49.9780   55.1550 C   0  0  0  0  0  0  0  0  0  0  0  0
   52.5980   50.0590   54.0200 C   0  0  0  0  0  0  0  0  0  0  0  0
   53.1460   50.2550   52.8110 C   0  0  0  0  0  0  0  0  0  0  0  0
   54.6390   50.4100   52.5360 C   0  0  0  0  0  0  0  0  0  0  0  0
   52.3520   50.3550   51.5230 C   0  0  0  0  0  0  0  0  0  0  0  0
   51.0530   49.7430   51.8120 O   0  0  0  0  0  0  0  0  0  0  0  0
   52.2420   51.8330   51.0540 C   0  0  0  0  0  0  0  0  0  0  0  0
   51.2930   52.0140   49.8710 C   0  0  0  0  0  0  0  0  0  0  0  0
   50.4510   53.0560   49.8020 C   0  0  0  0  0  0  0  0  0  0  0  0
   49.6210   53.1770   48.7510 C   0  0  0  0  0  0  0  0  0  0  0  0
   48.7590   54.2100   48.6400 C   0  0  0  0  0  0  0  0  0  0  0  0
   47.7870   54.3570   47.4400 C   0  0  0  0  0  0  0  0  0  0  0  0
   48.0280   55.5600   46.6810 O   0  0  0  0  0  0  0  0  0  0  0  0
   46.3420   54.3950   47.9370 C   0  0  0  0  0  0  0  0  0  0  0  0
   46.1200   53.1980   48.8990 C   0  0  0  0  0  0  0  0  0  0  0  0
   45.3770   54.3530   46.6820 C   0  0  0  0  0  0  0  0  0  0  0  0
   45.6540   53.2080   45.8550 O   0  0  0  0  0  0  0  0  0  0  0  0
   43.8540   54.4430   47.0690 C   0  0  0  0  0  0  0  0  0  0  0  0
   43.0610   54.7700   45.7990 C   0  0  0  0  0  0  0  0  0  0  0  0
   41.5600   54.9510   46.0710 C   0  0  0  0  0  0  0  0  0  0  0  0
   40.8020   55.1370   44.7720 C   0  0  0  0  0  0  0  0  0  0  0  0
   39.4160   54.5390   44.5610 C   0  0  0  0  0  0  0  0  0  0  0  0
   41.2400   55.7530   43.7950 O   0  0  0  0  0  0  0  0  0  0  0  0
   43.2890   53.1530   47.7300 C   0  0  0  0  0  0  0  0  0  0  0  0
   42.6020   53.2180   48.7620 O   0  0  0  0  0  0  0  0  0  0  0  0
   43.5810   51.9730   47.1640 N   0  0  0  0  0  0  0  0  0  0  0  0
   43.1720   50.7040   47.7780 C   0  0  0  0  0  0  0  0  0  0  0  0
   42.5650   49.7610   46.7190 C   0  0  0  0  0  0  0  0  0  0  0  0
   41.3310   50.4380   46.0910 C   0  0  0  0  0  0  0  0  0  0  0  0
   42.1700   48.4350   47.3550 C   0  0  0  0  0  0  0  0  0  0  0  0
   44.4950   50.1620   48.3260 C   0  0  0  0  0  0  0  0  0  0  0  0
   45.4120   49.8390   47.5910 O   0  0  0  0  0  0  0  0  0  0  0  0
   44.5370   50.1170   49.6430 N   0  0  0  0  0  0  0  0  0  0  0  0
   45.7280   49.8730   50.4350 C   0  0  0  0  0  0  0  0  0  0  0  0
   45.5600   50.8180   51.6320 C   0  0  0  0  0  0  0  0  0  0  0  0
   46.6050   50.6710   52.7010 C   0  0  0  0  0  0  0  0  0  0  0  0
   46.3830   49.8570   53.8150 C   0  0  0  0  0  0  0  0  0  0  0  0
   47.3300   49.7160   54.8020 C   0  0  0  0  0  0  0  0  0  0  0  0
   47.0580   48.8990   55.8700 O   0  0  0  0  0  0  0  0  0  0  0  0
   48.5250   50.4010   54.7030 C   0  0  0  0  0  0  0  0  0  0  0  0
   48.7520   51.2170   53.6210 C   0  0  0  0  0  0  0  0  0  0  0  0
   47.8100   51.3590   52.6200 C   0  0  0  0  0  0  0  0  0  0  0  0
   45.7840   48.4050   50.8730 C   0  0  0  0  0  0  0  0  0  0  0  0
   44.7760   47.8610   51.3050 O   0  0  0  0  0  0  0  0  0  0  0  0
   46.9490   47.7490   50.7360 N   0  0  0  0  0  0  0  0  0  0  0  0
   48.1210   48.3740   50.3430 N   0  0  0  0  0  0  0  0  0  0  0  0
   47.1050   46.3570   51.2070 C   0  0  0  0  0  0  0  0  0  0  0  0
   48.1410   46.3070   52.3240 C   0  0  0  0  0  0  0  0  0  0  0  0
   49.4200   47.0560   51.9730 C   0  0  0  0  0  0  0  0  0  0  0  0
   49.1490   48.4630   51.3910 C   0  0  0  0  0  0  0  0  0  0  0  0
   50.4250   49.0440   50.8620 C   0  0  0  0  0  0  0  0  0  0  0  0
   50.7990   48.8490   49.7250 O   0  0  0  0  0  0  0  0  0  0  0  0
  1  2  2  0
  2  3  1  0
  2  7  1  0
  3  4  1  0
  3  6  1  0
  4  5  1  0
  6 10  1  0
  7  8  1  0
  8  9  1  0
  8 10  1  0
  8 12  1  0
  9 18  1  0
 10 11  1  0
 12 13  1  0
 12 14  1  0
 14 15  1  0
 14 16  1  0
 16 17  1  0
 16 18  1  0
 18 19  1  0
 19 20  1  0
 20 21  1  0
 20 22  1  0
 22 23  1  0
 22 24  1  0
 24 25  1  0
 25 26  1  0
 26 27  2  0
 27 28  1  0
 28 29  2  0
 29 30  1  0
 29 31  1  0
 31 32  1  0
 31 33  1  0
 32 77  1  0
 33 34  1  0
 34 35  2  0
 35 36  1  0
 36 37  2  0
 37 38  1  0
 38 39  1  0
 38 40  1  0
 40 41  1  0
 40 42  1  0
 42 43  1  0
 42 44  1  0
 44 45  1  0
 44 50  1  0
 45 46  1  0
 46 47  1  0
 47 48  1  0
 47 49  2  0
 50 51  2  0
 50 52  1  0
 52 53  1  0
 53 54  1  0
 53 57  1  0
 54 55  1  0
 54 56  1  0
 57 58  2  0
 57 59  1  0
 59 60  1  0
 60 61  1  0
 60 69  1  0
 61 62  1  0
 62 63  2  0
 62 68  1  0
 63 64  1  0
 64 65  1  0
 64 66  2  0
 66 67  1  0
 67 68  2  0
 69 70  2  0
 69 71  1  0
 71 72  1  0
 71 73  1  0
 72 76  1  0
 73 74  1  0
 74 75  1  0
 75 76  1  0
 76 77  1  0
 77 78  2  0
M  END
>  <s_m_entry_id>  (37) 
1089

>  <s_m_entry_name>  (37) 
1ynd.1

>  <s_pdb_PDB_TITLE>  (37) 
STRUCTURE OF HUMAN CYCLOPHILIN A IN COMPLEX WITH THE NOVEL IMMUNOSUPPRESSANT SANGLIFEHRIN A AT 1.6A RESOLUTION

>  <s_m_Source_Path>  (37) 
/nfs/zone2/sindhikara/master/src/validation_scripts/tests/prime/macrocycle/BMS208

>  <s_m_Source_File>  (37) 
208refs.maegz

>  <i_m_Source_File_Index>  (37) 
179

>  <s_pdb_PDB_ID>  (37) 
1YND

>  <r_pdb_PDB_R>  (37) 
0.163

>  <r_pdb_PDB_Rfree>  (37) 
0.185

>  <r_pdb_PDB_RESOLUTION>  (37) 
1.6

>  <s_m_Molecular_formula>  (37) 
C60H93N5O13

>  <r_m_Molecular_weight>  (37) 
1092.43591

>  <i_m_Number_of_heavy_atoms>  (37) 
78

>  <i_m_Number_of_atoms>  (37) 
171

>  <s_user_Group>  (37) 
Example PDB

>  <s_user_Preparation>  (37) 
reference

>  <s_user_Primary_PMID>  (37) 
15772070                                                     

>  <s_user_Primary_DOI>  (37) 
10.1074/JBC.M501623200     

>  <s_user_Unique_SMILES>  (37) 
CC[C@H](C(=O)N1)C[C@H](C)[C@@]12[C@@H](C)[C@@H](O)[C@@H](C)[C@@H](O2)C[C@H](O)[C@@H](C)CC/C=C/C=C(\C)[C@@H](OC3=O)C/C=C/C=C/[C@H](O)[C@H](C)[C@@H](O)[C@@H](CCC(=O)C)C(=O)N[C@@H](C(C)C)C(=O)N[C@H](C(=O)N(N4)CCC[C@@H]34)Cc5cc(O)ccc5

>  <s_user_Source>  (37) 
PDB

>  <s_user_InChI1S_Key>  (37) 
InChIKey=ONJZYZYZIKTIEG-CFBQITSMSA-N

>  <s_user_Sample>  (37) 
TRAIN

>  <s_user_Name>  (37) 
Sanglifehrin-like

>  <s_m_subgroup_title>  (37) 
208refs

>  <s_m_subgroupid>  (37) 
208refs

>  <b_m_subgroup_collapsed>  (37) 
0

$$$$
1YXQ
     RDKit          3D

 98102  0  0  1  0  0  0  0  0999 V2000
   16.5377   61.5819   48.0954 O   0  0  0  0  0  0  0  0  0  0  0  0
   17.2447   62.4849   48.3614 C   0  0  0  0  0  0  0  0  0  0  0  0
   18.5677   62.1859   48.5104 O   0  0  0  0  0  0  0  0  0  0  0  0
   18.8647   60.7439   48.1854 C   0  0  0  0  0  0  0  0  0  0  0  0
   18.1987   60.1519   49.4664 C   0  0  0  0  0  0  0  0  0  0  0  0
   19.1517   59.5929   50.3904 C   0  0  0  0  0  0  0  0  0  0  0  0
   18.4787   58.8059   51.5504 C   0  0  0  0  0  0  0  0  0  0  0  0
   18.5607   57.3699   51.3574 C   0  0  0  0  0  0  0  0  0  0  0  0
   18.8337   56.5959   52.4514 C   0  0  0  0  0  0  0  0  0  0  0  0
   19.3777   55.2869   52.1124 C   0  0  0  0  0  0  0  0  0  0  0  0
   18.6777   54.5269   51.2524 O   0  0  0  0  0  0  0  0  0  0  0  0
   17.4087   54.0779   51.6254 C   0  0  0  0  0  0  0  0  0  0  0  0
   16.6497   53.3649   50.4964 C   0  0  0  0  0  0  0  0  0  0  0  0
   17.5187   53.1509   52.8234 C   0  0  0  0  0  0  0  0  0  0  0  0
   18.2477   53.8589   53.9584 C   0  0  0  0  0  0  0  0  0  0  0  0
   18.3227   52.9689   55.1384 O   0  0  0  0  0  0  0  0  0  0  0  0
   19.5637   52.2919   55.4864 C   0  0  0  0  0  0  0  0  0  0  0  0
   19.6317   54.3969   53.3504 C   0  0  0  0  0  0  0  0  0  0  0  0
   17.0837   59.1449   51.9864 C   0  0  0  0  0  0  0  0  0  0  0  0
   20.2977   60.4139   50.4664 O   0  0  0  0  0  0  0  0  0  0  0  0
   16.9767   59.3079   49.2924 C   0  0  0  0  0  0  0  0  0  0  0  0
   20.3167   60.8969   47.4894 C   0  0  0  0  0  0  0  0  0  0  0  0
   21.0257   59.5789   47.1844 C   0  0  0  0  0  0  0  0  0  0  0  0
   20.0897   61.7319   46.1654 C   0  0  0  0  0  0  0  0  0  0  0  0
   19.1347   60.9469   45.3924 O   0  0  0  0  0  0  0  0  0  0  0  0
   21.2747   62.0119   45.3164 C   0  0  0  0  0  0  0  0  0  0  0  0
   22.4207   62.7739   46.0374 C   0  0  0  0  0  0  0  0  0  0  0  0
   21.8717   63.8219   46.7534 O   0  0  0  0  0  0  0  0  0  0  0  0
   23.4717   63.3059   45.0554 C   0  0  0  0  0  0  0  0  0  0  0  0
   24.0647   62.1239   44.1924 C   0  0  0  0  0  0  0  0  0  0  0  0
   24.5207   64.0789   45.8084 C   0  0  0  0  0  0  0  0  0  0  0  0
   25.3097   63.0669   46.4684 O   0  0  0  0  0  0  0  0  0  0  0  0
   26.0597   63.5819   47.6084 C   0  0  0  0  0  0  0  0  0  0  0  0
   25.3027   65.0279   44.9324 C   0  0  0  0  0  0  0  0  0  0  0  0
   24.7127   66.3579   44.6054 C   0  0  0  0  0  0  0  0  0  0  0  0
   25.7137   67.2999   43.9474 C   0  0  0  0  0  0  0  0  0  0  0  0
   24.8147   68.4059   43.5624 C   0  0  0  0  0  0  0  0  0  0  0  0
   23.9837   68.8799   44.3884 C   0  0  0  0  0  0  0  0  0  0  0  0
   24.4957   67.0369   45.8594 O   0  0  0  0  0  0  0  0  0  0  0  0
   23.7987   68.3569   45.8274 C   0  0  0  0  0  0  0  0  0  0  0  0
   22.2927   68.1999   45.9314 C   0  0  0  0  0  0  0  0  0  0  0  0
   21.8797   67.5709   47.1864 C   0  0  0  0  0  0  0  0  0  0  0  0
   22.3397   68.4659   48.3194 O   0  0  0  0  0  0  0  0  0  0  0  0
   20.4777   67.3809   47.5524 C   0  0  0  0  0  0  0  0  0  0  0  0
   19.6237   66.3749   46.7934 C   0  0  0  0  0  0  0  0  0  0  0  0
   18.5747   66.6499   45.9414 C   0  0  0  0  0  0  0  0  0  0  0  0
   18.0097   68.0669   45.7774 C   0  0  0  0  0  0  0  0  0  0  0  0
   17.7637   65.7059   45.2194 C   0  0  0  0  0  0  0  0  0  0  0  0
   18.1537   64.6119   44.7194 C   0  0  0  0  0  0  0  0  0  0  0  0
   17.2577   63.5969   44.0134 C   0  0  0  0  0  0  0  0  0  0  0  0
   17.8457   62.6199   43.8034 O   0  0  0  0  0  0  0  0  0  0  0  0
   16.9667   63.9299   48.4764 C   0  0  0  0  0  0  0  0  0  0  0  0
   15.7187   64.5799   48.2924 C   0  0  0  0  0  0  0  0  0  0  0  0
   15.6227   66.0729   48.4004 C   0  0  0  0  0  0  0  0  0  0  0  0
   16.8207   66.6419   49.2034 C   0  0  0  0  0  0  0  0  0  0  0  0
   14.9057   66.9959   47.8624 C   0  0  0  0  0  0  0  0  0  0  0  0
   13.6787   67.2189   47.2034 C   0  0  0  0  0  0  0  0  0  0  0  0
   12.8367   67.8499   48.3194 C   0  0  0  0  0  0  0  0  0  0  0  0
   11.9147   68.8109   47.7184 O   0  0  0  0  0  0  0  0  0  0  0  0
   12.1647   66.9329   49.2874 C   0  0  0  0  0  0  0  0  0  0  0  0
   10.7207   67.1129   49.7214 C   0  0  0  0  0  0  0  0  0  0  0  0
    9.8177   66.2099   48.9084 O   0  0  0  0  0  0  0  0  0  0  0  0
    9.8907   64.8019   49.3744 C   0  0  0  0  0  0  0  0  0  0  0  0
    9.1687   64.9139   50.6814 C   0  0  0  0  0  0  0  0  0  0  0  0
    9.6317   65.9969   51.5164 C   0  0  0  0  0  0  0  0  0  0  0  0
   10.6577   66.7379   51.1934 C   0  0  0  0  0  0  0  0  0  0  0  0
    9.0197   64.0899   48.3654 C   0  0  0  0  0  0  0  0  0  0  0  0
    9.8087   63.7919   47.0734 C   0  0  0  0  0  0  0  0  0  0  0  0
    8.9807   63.3869   46.0094 O   0  0  0  0  0  0  0  0  0  0  0  0
    8.4287   64.6099   45.3114 C   0  0  0  0  0  0  0  0  0  0  0  0
   10.8697   62.6709   47.2794 C   0  0  0  0  0  0  0  0  0  0  0  0
   10.2167   61.3139   47.2354 C   0  0  0  0  0  0  0  0  0  0  0  0
   11.9677   62.8059   46.1354 C   0  0  0  0  0  0  0  0  0  0  0  0
   12.4737   64.1859   46.1584 O   0  0  0  0  0  0  0  0  0  0  0  0
   13.0207   61.8779   46.2924 C   0  0  0  0  0  0  0  0  0  0  0  0
   14.1547   62.0569   45.3674 C   0  0  0  0  0  0  0  0  0  0  0  0
   15.0377   60.9129   45.6434 O   0  0  0  0  0  0  0  0  0  0  0  0
   13.9217   62.1699   43.9224 C   0  0  0  0  0  0  0  0  0  0  0  0
   13.2497   60.9039   43.3264 C   0  0  0  0  0  0  0  0  0  0  0  0
   15.2667   62.5079   43.1684 C   0  0  0  0  0  0  0  0  0  0  0  0
   15.8877   63.7209   43.7314 O   0  0  0  0  0  0  0  0  0  0  0  0
   15.1097   62.5459   41.6654 C   0  0  0  0  0  0  0  0  0  0  0  0
   14.2407   63.7359   41.1884 C   0  0  0  0  0  0  0  0  0  0  0  0
   16.4697   62.3759   40.8964 C   0  0  0  0  0  0  0  0  0  0  0  0
   17.3967   61.5939   41.5454 O   0  0  0  0  0  0  0  0  0  0  0  0
   16.6697   62.0969   39.5074 C   0  0  0  0  0  0  0  0  0  0  0  0
   17.4937   63.2139   38.8004 C   0  0  0  0  0  0  0  0  0  0  0  0
   15.4257   61.6909   38.6894 C   0  0  0  0  0  0  0  0  0  0  0  0
   15.7377   61.3119   37.2584 C   0  0  0  0  0  0  0  0  0  0  0  0
   15.1547   59.9509   36.7784 C   0  0  0  0  0  0  0  0  0  0  0  0
   15.8827   58.8239   37.2684 O   0  0  0  0  0  0  0  0  0  0  0  0
   17.1897   58.6439   36.7764 C   0  0  0  0  0  0  0  0  0  0  0  0
   17.6877   57.3049   37.4204 C   0  0  0  0  0  0  0  0  0  0  0  0
   17.1727   58.5799   35.2114 C   0  0  0  0  0  0  0  0  0  0  0  0
   16.4807   59.7169   34.7004 C   0  0  0  0  0  0  0  0  0  0  0  0
   15.1297   59.9069   35.2614 C   0  0  0  0  0  0  0  0  0  0  0  0
   16.3267   59.6489   33.2044 O   0  0  0  0  0  0  0  0  0  0  0  0
   16.5937   60.7779   32.3204 C   0  0  0  0  0  0  0  0  0  0  0  0
  1  2  2  0
  2  3  1  0
  2 52  1  0
  3  4  1  0
  4  5  1  0
  4 22  1  0
  5  6  1  0
  5 21  1  0
  6  7  1  0
  6 20  1  0
  7  8  1  0
  7 19  1  0
  8  9  1  0
  9 10  1  0
 10 11  1  0
 10 18  1  0
 11 12  1  0
 12 13  1  0
 12 14  1  0
 14 15  1  0
 15 16  1  0
 15 18  1  0
 16 17  1  0
 22 23  1  0
 22 24  1  0
 24 25  1  0
 24 26  1  0
 26 27  1  0
 27 28  1  0
 27 29  1  0
 29 30  1  0
 29 31  1  0
 31 32  1  0
 31 34  1  0
 32 33  1  0
 34 35  1  0
 35 36  1  0
 35 39  1  0
 36 37  1  0
 37 38  2  0
 38 40  1  0
 39 40  1  0
 40 41  1  0
 41 42  1  0
 42 43  1  0
 42 44  1  0
 44 45  1  0
 45 46  2  0
 46 47  1  0
 46 48  1  0
 48 49  2  0
 49 50  1  0
 50 51  2  0
 50 81  1  0
 52 53  2  0
 53 54  1  0
 54 55  1  0
 54 56  2  0
 56 57  1  0
 57 58  1  0
 58 59  1  0
 58 60  1  0
 60 61  1  0
 61 62  1  0
 61 66  1  0
 62 63  1  0
 63 64  1  0
 63 67  1  0
 64 65  1  0
 65 66  1  0
 67 68  1  0
 68 69  1  0
 68 71  1  0
 69 70  1  0
 71 72  1  0
 71 73  1  0
 73 74  1  0
 73 75  1  0
 75 76  1  0
 76 77  1  0
 76 78  1  0
 78 79  1  0
 78 80  1  0
 80 81  1  0
 80 82  1  0
 82 83  1  0
 82 84  1  0
 84 85  1  0
 84 86  1  0
 86 87  1  0
 86 88  1  0
 88 89  1  0
 89 90  1  0
 90 91  1  0
 90 96  1  0
 91 92  1  0
 92 93  1  0
 92 94  1  0
 94 95  1  0
 95 96  1  0
 95 97  1  0
 97 98  1  0
M  END
>  <s_m_entry_id>  (38) 
1090

>  <s_m_entry_name>  (38) 
1yxq.1

>  <s_pdb_PDB_TITLE>  (38) 
CRYSTAL STRUCTURE OF ACTIN IN COMPLEX WITH SWINHOLIDE A

>  <s_m_Source_Path>  (38) 
/nfs/zone2/sindhikara/master/src/validation_scripts/tests/prime/macrocycle/BMS208

>  <s_m_Source_File>  (38) 
208refs.maegz

>  <i_m_Source_File_Index>  (38) 
180

>  <s_pdb_PDB_ID>  (38) 
1YXQ

>  <r_pdb_PDB_R>  (38) 
0.184

>  <r_pdb_PDB_Rfree>  (38) 
0.219

>  <r_pdb_PDB_RESOLUTION>  (38) 
2.01

>  <s_m_Molecular_formula>  (38) 
C78H134O20

>  <r_m_Molecular_weight>  (38) 
1391.92568

>  <i_m_Number_of_heavy_atoms>  (38) 
98

>  <i_m_Number_of_atoms>  (38) 
232

>  <s_user_Group>  (38) 
Example PDB

>  <s_user_Preparation>  (38) 
reference

>  <s_user_Primary_PMID>  (38) 
15797212                                                     

>  <s_user_Primary_DOI>  (38) 
10.1016/J.CHEMBIOL.2005.02.011    

>  <s_user_Unique_SMILES>  (38) 
[C@H]12C=CC[C@H](O2)C[C@H](OC)[C@@H](C)[C@@H](O)C[C@@H](O)[C@H](C)[C@@H]([C@@H](C)[C@@H](O)[C@@H](C)CC[C@H]3C[C@H](OC)C[C@@H](O3)C)OC(=O)\C=C\C(\C)=C/C[C@@H](O)C[C@@H]4CCC[C@H](O4)C[C@H](OC)[C@@H](C)[C@@H](O)C[C@@H](O)[C@H](C)[C@H](OC(=O)\C=C\C(\C)=C\C[C@@H](C1)O)[C@@H](C)[C@@H](O)[C@H](C)CC[C@H]5C[C@H](OC)C[C@@H](O5)C

>  <s_user_Source>  (38) 
PDB

>  <s_user_InChI1S_Key>  (38) 
InChIKey=UGBUZQQTHCSPSJ-CYRVCNPLSA-N

>  <s_user_Sample>  (38) 
TRAIN

>  <s_m_subgroup_title>  (38) 
208refs

>  <s_m_subgroupid>  (38) 
208refs

>  <b_m_subgroup_collapsed>  (38) 
0

$$$$
2ASM
     RDKit          3D

 68 69  0  0  1  0  0  0  0  0999 V2000
   14.4346   63.1214   46.0234 O   0  0  0  0  0  0  0  0  0  0  0  0
   15.5816   62.7674   46.1654 C   0  0  0  0  0  0  0  0  0  0  0  0
   16.6516   63.5064   45.7154 O   0  0  0  0  0  0  0  0  0  0  0  0
   16.0286   61.4644   46.7974 C   0  0  0  0  0  0  0  0  0  0  0  0
   15.0776   60.5884   47.1894 C   0  0  0  0  0  0  0  0  0  0  0  0
   15.5026   59.2534   47.7954 C   0  0  0  0  0  0  0  0  0  0  0  0
   14.6496   58.2734   48.1684 C   0  0  0  0  0  0  0  0  0  0  0  0
   13.0846   58.3894   48.0604 C   0  0  0  0  0  0  0  0  0  0  0  0
   15.3856   57.0544   48.7084 C   0  0  0  0  0  0  0  0  0  0  0  0
   15.1866   56.9184   50.2204 C   0  0  0  0  0  0  0  0  0  0  0  0
   13.7796   56.3774   50.3394 O   0  0  0  0  0  0  0  0  0  0  0  0
   13.2516   56.5034   51.7564 C   0  0  0  0  0  0  0  0  0  0  0  0
   16.2066   55.9104   50.7584 C   0  0  0  0  0  0  0  0  0  0  0  0
   17.6026   56.4324   50.7164 C   0  0  0  0  0  0  0  0  0  0  0  0
   18.5206   55.8474   49.9574 C   0  0  0  0  0  0  0  0  0  0  0  0
   19.9216   56.3474   49.8704 C   0  0  0  0  0  0  0  0  0  0  0  0
   20.7516   55.8424   49.1764 O   0  0  0  0  0  0  0  0  0  0  0  0
   17.9566   57.6484   51.5294 C   0  0  0  0  0  0  0  0  0  0  0  0
   19.4496   57.8074   51.7914 C   0  0  0  0  0  0  0  0  0  0  0  0
   20.2856   57.4484   50.6374 O   0  0  0  0  0  0  0  0  0  0  0  0
   19.9256   59.2004   52.1354 C   0  0  0  0  0  0  0  0  0  0  0  0
   21.3486   59.1594   52.7004 C   0  0  0  0  0  0  0  0  0  0  0  0
   19.1296   60.0014   53.1594 C   0  0  0  0  0  0  0  0  0  0  0  0
   18.8636   59.3494   54.3754 O   0  0  0  0  0  0  0  0  0  0  0  0
   17.9386   59.4064   55.4684 C   0  0  0  0  0  0  0  0  0  0  0  0
   19.3766   61.4704   53.4744 C   0  0  0  0  0  0  0  0  0  0  0  0
   19.0326   62.4464   52.2974 C   0  0  0  0  0  0  0  0  0  0  0  0
   19.7666   63.6174   52.7534 O   0  0  0  0  0  0  0  0  0  0  0  0
   19.7486   64.7874   51.8834 C   0  0  0  0  0  0  0  0  0  0  0  0
   17.4676   62.6434   52.4114 C   0  0  0  0  0  0  0  0  0  0  0  0
   16.8236   62.2424   51.3084 C   0  0  0  0  0  0  0  0  0  0  0  0
   15.3046   62.4064   51.2604 C   0  0  0  0  0  0  0  0  0  0  0  0
   14.6546   61.0594   51.0624 C   0  0  0  0  0  0  0  0  0  0  0  0
   14.8226   63.4414   50.2064 C   0  0  0  0  0  0  0  0  0  0  0  0
   13.3926   63.5674   50.3064 O   0  0  0  0  0  0  0  0  0  0  0  0
   12.6356   63.3244   49.1134 C   0  0  0  0  0  0  0  0  0  0  0  0
   15.4036   64.8104   50.5284 C   0  0  0  0  0  0  0  0  0  0  0  0
   15.2756   65.9224   49.5024 C   0  0  0  0  0  0  0  0  0  0  0  0
   15.4956   67.1874   50.1154 O   0  0  0  0  0  0  0  0  0  0  0  0
   15.0216   68.4624   49.6974 C   0  0  0  0  0  0  0  0  0  0  0  0
   16.1386   65.8224   48.2734 C   0  0  0  0  0  0  0  0  0  0  0  0
   15.8086   65.9334   46.9984 C   0  0  0  0  0  0  0  0  0  0  0  0
   16.7536   65.8784   45.7964 C   0  0  0  0  0  0  0  0  0  0  0  0
   16.4126   67.1864   45.0874 C   0  0  0  0  0  0  0  0  0  0  0  0
   16.2796   64.6684   44.9634 C   0  0  0  0  0  0  0  0  0  0  0  0
   17.1306   64.5934   43.6374 C   0  0  0  0  0  0  0  0  0  0  0  0
   18.6466   64.3404   43.8854 C   0  0  0  0  0  0  0  0  0  0  0  0
   16.6196   63.4194   42.7714 C   0  0  0  0  0  0  0  0  0  0  0  0
   15.2526   63.7634   42.4204 O   0  0  0  0  0  0  0  0  0  0  0  0
   14.3146   62.6974   42.5474 C   0  0  0  0  0  0  0  0  0  0  0  0
   17.3656   63.2814   41.4094 C   0  0  0  0  0  0  0  0  0  0  0  0
   16.7676   62.0814   40.6164 C   0  0  0  0  0  0  0  0  0  0  0  0
   17.4066   64.5024   40.4854 C   0  0  0  0  0  0  0  0  0  0  0  0
   18.2466   64.2744   39.2004 C   0  0  0  0  0  0  0  0  0  0  0  0
   18.4036   65.6344   38.4514 C   0  0  0  0  0  0  0  0  0  0  0  0
   17.9906   66.7164   38.7764 O   0  0  0  0  0  0  0  0  0  0  0  0
   19.1936   65.3204   37.1984 C   0  0  0  0  0  0  0  0  0  0  0  0
   20.4096   66.3394   37.1804 C   0  0  0  0  0  0  0  0  0  0  0  0
   18.2476   65.6504   35.9844 C   0  0  0  0  0  0  0  0  0  0  0  0
   17.2276   64.6824   36.1884 O   0  0  0  0  0  0  0  0  0  0  0  0
   16.0446   65.0444   35.4914 C   0  0  0  0  0  0  0  0  0  0  0  0
   18.9896   65.3464   34.6234 C   0  0  0  0  0  0  0  0  0  0  0  0
   19.5926   63.9214   34.4884 C   0  0  0  0  0  0  0  0  0  0  0  0
   20.9346   63.9104   34.4124 C   0  0  0  0  0  0  0  0  0  0  0  0
   21.5606   62.6154   34.2914 N   0  0  0  0  0  0  0  0  0  0  0  0
   20.8456   61.3354   34.1854 C   0  0  0  0  0  0  0  0  0  0  0  0
   22.9916   62.6004   34.3554 C   0  0  0  0  0  0  0  0  0  0  0  0
   23.6596   61.6064   34.3454 O   0  0  0  0  0  0  0  0  0  0  0  0
  1  2  2  0
  2  3  1  0
  2  4  1  0
  3 45  1  0
  4  5  2  0
  5  6  1  0
  6  7  2  0
  7  8  1  0
  7  9  1  0
  9 10  1  0
 10 11  1  0
 10 13  1  0
 11 12  1  0
 13 14  1  0
 14 15  2  0
 14 18  1  0
 15 16  1  0
 16 17  2  0
 16 20  1  0
 18 19  1  0
 19 20  1  0
 19 21  1  0
 21 22  1  0
 21 23  1  0
 23 24  1  0
 23 26  1  0
 24 25  1  0
 26 27  1  0
 27 28  1  0
 27 30  1  0
 28 29  1  0
 30 31  2  0
 31 32  1  0
 32 33  1  0
 32 34  1  0
 34 35  1  0
 34 37  1  0
 35 36  1  0
 37 38  1  0
 38 39  1  0
 38 41  1  0
 39 40  1  0
 41 42  2  0
 42 43  1  0
 43 44  1  0
 43 45  1  0
 45 46  1  0
 46 47  1  0
 46 48  1  0
 48 49  1  0
 48 51  1  0
 49 50  1  0
 51 52  1  0
 51 53  1  0
 53 54  1  0
 54 55  1  0
 55 56  2  0
 55 57  1  0
 57 58  1  0
 57 59  1  0
 59 60  1  0
 59 62  1  0
 60 61  1  0
 62 63  1  0
 63 64  2  0
 64 65  1  0
 65 66  1  0
 65 67  1  0
 67 68  2  0
M  END
>  <s_m_entry_id>  (39) 
1091

>  <s_m_entry_name>  (39) 
2asm.1

>  <s_pdb_PDB_TITLE>  (39) 
STRUCTURE OF RABBIT ACTIN IN COMPLEX WITH REIDISPONGIOLIDE A

>  <s_m_Source_Path>  (39) 
/nfs/zone2/sindhikara/master/src/validation_scripts/tests/prime/macrocycle/BMS208

>  <s_m_Source_File>  (39) 
208refs.maegz

>  <i_m_Source_File_Index>  (39) 
181

>  <s_pdb_PDB_ID>  (39) 
2ASM

>  <r_pdb_PDB_R>  (39) 
0.164

>  <r_pdb_PDB_Rfree>  (39) 
0.189

>  <r_pdb_PDB_RESOLUTION>  (39) 
1.6

>  <s_m_Molecular_formula>  (39) 
C54H87N1O13

>  <r_m_Molecular_weight>  (39) 
958.29439

>  <i_m_Number_of_heavy_atoms>  (39) 
68

>  <i_m_Number_of_atoms>  (39) 
155

>  <s_user_Group>  (39) 
Example PDB

>  <s_user_Preparation>  (39) 
reference

>  <s_user_Primary_PMID>  (39) 
16192358                                                     

>  <s_user_Primary_DOI>  (39) 
10.1073/PNAS.0502089102     

>  <s_user_Unique_SMILES>  (39) 
O=CN(C)\C=C\C[C@@H](OC)[C@@H](C)C(=O)CC[C@H](C)[C@H](OC)[C@H](C)[C@@H](OC(=O)/C=C/C=C(\C)C[C@H](C1)OC)[C@@H](C)/C=C/[C@H](OC)C[C@H](OC)[C@@H](C)/C=C/[C@@H](OC)C[C@H](OC)[C@@H](C)[C@@H](C2)OC(=O)C=C12

>  <s_user_Source>  (39) 
PDB

>  <s_user_InChI1S_Key>  (39) 
InChIKey=LOYDTENNTZZQJM-DIUYYEMASA-N

>  <s_user_Sample>  (39) 
TEST

>  <s_user_Name>  (39) 
Reidispongiolide A

>  <s_m_subgroup_title>  (39) 
208refs

>  <s_m_subgroupid>  (39) 
208refs

>  <b_m_subgroup_collapsed>  (39) 
0

$$$$
2ASO
     RDKit          3D

 68 69  0  0  1  0  0  0  0  0999 V2000
   25.6549   69.1874   48.7462 O   0  0  0  0  0  0  0  0  0  0  0  0
   25.0199   68.1674   48.8962 C   0  0  0  0  0  0  0  0  0  0  0  0
   23.5969   68.0864   48.4392 C   0  0  0  0  0  0  0  0  0  0  0  0
   22.8729   66.9844   48.5882 C   0  0  0  0  0  0  0  0  0  0  0  0
   23.5289   65.7344   49.2482 C   0  0  0  0  0  0  0  0  0  0  0  0
   22.8689   65.3804   50.4552 O   0  0  0  0  0  0  0  0  0  0  0  0
   21.4989   67.1264   48.0662 C   0  0  0  0  0  0  0  0  0  0  0  0
   21.2979   66.2724   46.9352 C   0  0  0  0  0  0  0  0  0  0  0  0
   22.2349   66.2014   45.8302 O   0  0  0  0  0  0  0  0  0  0  0  0
   22.2299   64.9364   45.1502 C   0  0  0  0  0  0  0  0  0  0  0  0
   19.9089   66.5854   46.3612 C   0  0  0  0  0  0  0  0  0  0  0  0
   18.7669   66.4404   47.2342 C   0  0  0  0  0  0  0  0  0  0  0  0
   18.2019   67.5134   48.1842 C   0  0  0  0  0  0  0  0  0  0  0  0
   18.2869   65.1794   47.0812 C   0  0  0  0  0  0  0  0  0  0  0  0
   17.0379   64.6274   47.7782 C   0  0  0  0  0  0  0  0  0  0  0  0
   16.3489   63.4864   47.6322 C   0  0  0  0  0  0  0  0  0  0  0  0
   16.6459   62.3734   46.6842 C   0  0  0  0  0  0  0  0  0  0  0  0
   17.5819   62.1604   45.9372 O   0  0  0  0  0  0  0  0  0  0  0  0
   15.5929   61.5664   46.7052 O   0  0  0  0  0  0  0  0  0  0  0  0
   25.6229   67.0714   49.4692 O   0  0  0  0  0  0  0  0  0  0  0  0
   25.1079   65.7274   49.0752 C   0  0  0  0  0  0  0  0  0  0  0  0
   25.5999   64.6344   50.1002 C   0  0  0  0  0  0  0  0  0  0  0  0
   27.1459   64.6744   50.1412 C   0  0  0  0  0  0  0  0  0  0  0  0
   25.0959   63.2414   49.6882 C   0  0  0  0  0  0  0  0  0  0  0  0
   25.7849   62.9184   48.4512 O   0  0  0  0  0  0  0  0  0  0  0  0
   25.1939   62.1634   47.4232 C   0  0  0  0  0  0  0  0  0  0  0  0
   25.1489   62.2644   50.7472 C   0  0  0  0  0  0  0  0  0  0  0  0
   23.9439   62.1034   51.6432 C   0  0  0  0  0  0  0  0  0  0  0  0
   24.2509   61.2004   52.7372 O   0  0  0  0  0  0  0  0  0  0  0  0
   23.2529   61.0684   53.8452 C   0  0  0  0  0  0  0  0  0  0  0  0
   22.8599   61.5494   50.8822 C   0  0  0  0  0  0  0  0  0  0  0  0
   21.6459   62.1204   50.8752 C   0  0  0  0  0  0  0  0  0  0  0  0
   20.5149   61.5654   50.0842 C   0  0  0  0  0  0  0  0  0  0  0  0
   20.4819   62.3714   48.8572 C   0  0  0  0  0  0  0  0  0  0  0  0
   19.2559   61.4304   51.0682 C   0  0  0  0  0  0  0  0  0  0  0  0
   18.9959   62.6844   51.6232 O   0  0  0  0  0  0  0  0  0  0  0  0
   17.9869   60.8034   50.4092 C   0  0  0  0  0  0  0  0  0  0  0  0
   17.9629   59.6154   49.5502 C   0  0  0  0  0  0  0  0  0  0  0  0
   18.0909   58.5484   50.4282 O   0  0  0  0  0  0  0  0  0  0  0  0
   17.7649   57.2304   50.5442 C   0  0  0  0  0  0  0  0  0  0  0  0
   16.7679   59.4734   48.7742 C   0  0  0  0  0  0  0  0  0  0  0  0
   16.7639   59.2194   47.4902 C   0  0  0  0  0  0  0  0  0  0  0  0
   15.4179   59.1014   46.7732 C   0  0  0  0  0  0  0  0  0  0  0  0
   15.3219   57.7014   46.2102 C   0  0  0  0  0  0  0  0  0  0  0  0
   15.4239   60.3554   45.8452 C   0  0  0  0  0  0  0  0  0  0  0  0
   14.0679   60.4464   44.9472 C   0  0  0  0  0  0  0  0  0  0  0  0
   12.8219   60.6204   45.9412 C   0  0  0  0  0  0  0  0  0  0  0  0
   14.2059   61.5534   43.9442 C   0  0  0  0  0  0  0  0  0  0  0  0
   15.3779   61.1734   43.0522 O   0  0  0  0  0  0  0  0  0  0  0  0
   16.3299   62.2154   42.7632 C   0  0  0  0  0  0  0  0  0  0  0  0
   12.9019   61.8234   42.9982 C   0  0  0  0  0  0  0  0  0  0  0  0
   13.1049   63.0844   42.1072 C   0  0  0  0  0  0  0  0  0  0  0  0
   12.5369   60.6034   42.2282 C   0  0  0  0  0  0  0  0  0  0  0  0
   11.2339   60.7894   41.4032 C   0  0  0  0  0  0  0  0  0  0  0  0
   10.8319   59.4944   40.7332 C   0  0  0  0  0  0  0  0  0  0  0  0
   11.4729   58.4534   40.6812 O   0  0  0  0  0  0  0  0  0  0  0  0
    9.4359   59.7064   40.0592 C   0  0  0  0  0  0  0  0  0  0  0  0
    8.3779   58.6964   40.5982 C   0  0  0  0  0  0  0  0  0  0  0  0
    9.7699   59.4684   38.5002 C   0  0  0  0  0  0  0  0  0  0  0  0
   10.7319   60.4354   38.0982 O   0  0  0  0  0  0  0  0  0  0  0  0
   11.5079   59.9684   36.9812 C   0  0  0  0  0  0  0  0  0  0  0  0
    8.3949   59.6254   37.5952 C   0  0  0  0  0  0  0  0  0  0  0  0
    7.8449   61.0504   37.7612 C   0  0  0  0  0  0  0  0  0  0  0  0
    6.6269   61.1654   38.3812 C   0  0  0  0  0  0  0  0  0  0  0  0
    5.9569   62.4754   38.5902 N   0  0  0  0  0  0  0  0  0  0  0  0
    6.4439   63.7374   38.1552 C   0  0  0  0  0  0  0  0  0  0  0  0
    4.7409   62.3404   39.3012 C   0  0  0  0  0  0  0  0  0  0  0  0
    4.0789   63.3274   39.6122 O   0  0  0  0  0  0  0  0  0  0  0  0
  1  2  2  0
  2  3  1  0
  2 20  1  0
  3  4  2  0
  4  5  1  0
  4  7  1  0
  5  6  1  0
  5 21  1  0
  7  8  1  0
  8  9  1  0
  8 11  1  0
  9 10  1  0
 11 12  1  0
 12 13  1  0
 12 14  2  0
 14 15  1  0
 15 16  2  0
 16 17  1  0
 17 18  2  0
 17 19  1  0
 19 45  1  0
 20 21  1  0
 21 22  1  0
 22 23  1  0
 22 24  1  0
 24 25  1  0
 24 27  1  0
 25 26  1  0
 27 28  1  0
 28 29  1  0
 28 31  1  0
 29 30  1  0
 31 32  2  0
 32 33  1  0
 33 34  1  0
 33 35  1  0
 35 36  1  0
 35 37  1  0
 37 38  1  0
 38 39  1  0
 38 41  1  0
 39 40  1  0
 41 42  2  0
 42 43  1  0
 43 44  1  0
 43 45  1  0
 45 46  1  0
 46 47  1  0
 46 48  1  0
 48 49  1  0
 48 51  1  0
 49 50  1  0
 51 52  1  0
 51 53  1  0
 53 54  1  0
 54 55  1  0
 55 56  2  0
 55 57  1  0
 57 58  1  0
 57 59  1  0
 59 60  1  0
 59 62  1  0
 60 61  1  0
 62 63  1  0
 63 64  2  0
 64 65  1  0
 65 66  1  0
 65 67  1  0
 67 68  2  0
M  END
>  <s_m_entry_id>  (40) 
1092

>  <s_m_entry_name>  (40) 
2aso.1

>  <s_pdb_PDB_TITLE>  (40) 
STRUCTURE OF RABBIT ACTIN IN COMPLEX WITH SPHINXOLIDE B

>  <s_m_Source_Path>  (40) 
/nfs/zone2/sindhikara/master/src/validation_scripts/tests/prime/macrocycle/BMS208

>  <s_m_Source_File>  (40) 
208refs.maegz

>  <i_m_Source_File_Index>  (40) 
182

>  <s_pdb_PDB_ID>  (40) 
2ASO

>  <r_pdb_PDB_R>  (40) 
0.173

>  <r_pdb_PDB_Rfree>  (40) 
0.213

>  <r_pdb_PDB_RESOLUTION>  (40) 
1.7

>  <s_m_Molecular_formula>  (40) 
C53H85N1O14

>  <r_m_Molecular_weight>  (40) 
960.2667

>  <i_m_Number_of_heavy_atoms>  (40) 
68

>  <i_m_Number_of_atoms>  (40) 
153

>  <s_user_Group>  (40) 
Example PDB

>  <s_user_Preparation>  (40) 
reference

>  <s_user_Primary_PMID>  (40) 
16192358                                                     

>  <s_user_Primary_DOI>  (40) 
10.1073/PNAS.0502089102     

>  <s_user_Unique_SMILES>  (40) 
O=CN(C)\C=C\C[C@@H](OC)[C@@H](C)C(=O)CC[C@H](C)[C@H](OC)[C@H](C)[C@@H](OC(=O)\C=C/C=C(\C)C[C@H](C1)OC)[C@@H](C)/C=C/[C@H](OC)C[C@H](O)[C@@H](C)/C=C/[C@@H](OC)C[C@H](OC)[C@@H](C)[C@@H]([C@H]2O)OC(=O)C=C12

>  <s_user_Source>  (40) 
PDB

>  <s_user_InChI1S_Key>  (40) 
InChIKey=MINVLQAHLUCDIO-WUYLRMRFSA-N

>  <s_user_Sample>  (40) 
TRAIN

>  <s_user_Name>  (40) 
Sphinxolide B

>  <s_m_subgroup_title>  (40) 
208refs

>  <s_m_subgroupid>  (40) 
208refs

>  <b_m_subgroup_collapsed>  (40) 
0

$$$$
2ASP
     RDKit          3D

 63 64  0  0  1  0  0  0  0  0999 V2000
   14.6127   63.0920   45.4131 O   0  0  0  0  0  0  0  0  0  0  0  0
   15.7697   62.7560   45.5161 C   0  0  0  0  0  0  0  0  0  0  0  0
   16.8277   63.4860   45.0631 O   0  0  0  0  0  0  0  0  0  0  0  0
   16.2567   61.4620   46.1321 C   0  0  0  0  0  0  0  0  0  0  0  0
   15.3367   60.5980   46.5621 C   0  0  0  0  0  0  0  0  0  0  0  0
   15.7897   59.2720   47.1691 C   0  0  0  0  0  0  0  0  0  0  0  0
   14.9477   58.3180   47.6181 C   0  0  0  0  0  0  0  0  0  0  0  0
   13.3847   58.4530   47.6001 C   0  0  0  0  0  0  0  0  0  0  0  0
   15.6567   57.0710   48.1461 C   0  0  0  0  0  0  0  0  0  0  0  0
   15.4887   56.9300   49.6741 C   0  0  0  0  0  0  0  0  0  0  0  0
   14.0727   56.4200   49.8401 O   0  0  0  0  0  0  0  0  0  0  0  0
   13.5897   56.5200   51.2771 C   0  0  0  0  0  0  0  0  0  0  0  0
   16.4907   55.8980   50.2011 C   0  0  0  0  0  0  0  0  0  0  0  0
   17.8787   56.4110   50.1221 C   0  0  0  0  0  0  0  0  0  0  0  0
   18.7597   55.8300   49.3321 C   0  0  0  0  0  0  0  0  0  0  0  0
   20.1537   56.3230   49.1941 C   0  0  0  0  0  0  0  0  0  0  0  0
   20.9567   55.8230   48.4471 O   0  0  0  0  0  0  0  0  0  0  0  0
   18.2437   57.6440   50.9021 C   0  0  0  0  0  0  0  0  0  0  0  0
   19.7457   57.8350   51.0921 C   0  0  0  0  0  0  0  0  0  0  0  0
   20.5407   57.4280   49.9271 O   0  0  0  0  0  0  0  0  0  0  0  0
   20.1797   59.2590   51.3611 C   0  0  0  0  0  0  0  0  0  0  0  0
   21.6517   59.3360   51.7671 C   0  0  0  0  0  0  0  0  0  0  0  0
   19.4357   60.0110   52.4461 C   0  0  0  0  0  0  0  0  0  0  0  0
   19.2017   59.2810   53.6191 O   0  0  0  0  0  0  0  0  0  0  0  0
   18.2587   59.2750   54.6851 C   0  0  0  0  0  0  0  0  0  0  0  0
   19.7037   61.4640   52.7941 C   0  0  0  0  0  0  0  0  0  0  0  0
   19.3577   62.4560   51.6311 C   0  0  0  0  0  0  0  0  0  0  0  0
   20.0367   63.6810   52.0491 O   0  0  0  0  0  0  0  0  0  0  0  0
   20.1117   64.7200   51.0341 C   0  0  0  0  0  0  0  0  0  0  0  0
   17.8027   62.6210   51.7851 C   0  0  0  0  0  0  0  0  0  0  0  0
   17.1467   62.3240   50.6691 C   0  0  0  0  0  0  0  0  0  0  0  0
   15.6277   62.4620   50.6601 C   0  0  0  0  0  0  0  0  0  0  0  0
   14.9997   61.1140   50.4561 C   0  0  0  0  0  0  0  0  0  0  0  0
   15.1517   63.4810   49.6051 C   0  0  0  0  0  0  0  0  0  0  0  0
   13.7237   63.6110   49.6601 O   0  0  0  0  0  0  0  0  0  0  0  0
   12.9727   63.1600   48.5301 C   0  0  0  0  0  0  0  0  0  0  0  0
   15.7467   64.8340   49.9301 C   0  0  0  0  0  0  0  0  0  0  0  0
   15.5497   65.9120   48.8901 C   0  0  0  0  0  0  0  0  0  0  0  0
   15.8137   67.1670   49.4661 O   0  0  0  0  0  0  0  0  0  0  0  0
   15.2237   68.4090   49.1061 C   0  0  0  0  0  0  0  0  0  0  0  0
   16.3517   65.8110   47.6311 C   0  0  0  0  0  0  0  0  0  0  0  0
   15.9817   65.9040   46.3561 C   0  0  0  0  0  0  0  0  0  0  0  0
   16.9307   65.8470   45.1511 C   0  0  0  0  0  0  0  0  0  0  0  0
   16.5957   67.1540   44.4421 C   0  0  0  0  0  0  0  0  0  0  0  0
   16.4897   64.6450   44.2881 C   0  0  0  0  0  0  0  0  0  0  0  0
   17.3477   64.5780   42.9591 C   0  0  0  0  0  0  0  0  0  0  0  0
   18.8637   64.3570   43.1941 C   0  0  0  0  0  0  0  0  0  0  0  0
   16.8167   63.3950   42.1011 C   0  0  0  0  0  0  0  0  0  0  0  0
   15.4287   63.7170   41.7821 O   0  0  0  0  0  0  0  0  0  0  0  0
   14.5217   62.6260   41.9171 C   0  0  0  0  0  0  0  0  0  0  0  0
   17.5587   63.2670   40.7371 C   0  0  0  0  0  0  0  0  0  0  0  0
   17.0017   62.0420   39.9471 C   0  0  0  0  0  0  0  0  0  0  0  0
   17.5797   64.5150   39.8451 C   0  0  0  0  0  0  0  0  0  0  0  0
   18.4297   64.2700   38.5691 C   0  0  0  0  0  0  0  0  0  0  0  0
   18.6957   65.6300   37.8661 C   0  0  0  0  0  0  0  0  0  0  0  0
   18.3867   66.7010   38.2981 O   0  0  0  0  0  0  0  0  0  0  0  0
   19.4457   65.2990   36.5901 C   0  0  0  0  0  0  0  0  0  0  0  0
   20.6367   66.3570   36.5091 C   0  0  0  0  0  0  0  0  0  0  0  0
   18.5257   65.5480   35.3281 C   0  0  0  0  0  0  0  0  0  0  0  0
   17.4177   64.6880   35.5701 O   0  0  0  0  0  0  0  0  0  0  0  0
   16.2457   65.1850   34.9261 C   0  0  0  0  0  0  0  0  0  0  0  0
   19.2627   65.0460   34.0221 C   0  0  0  0  0  0  0  0  0  0  0  0
   19.9217   63.6390   34.0861 C   0  0  0  0  0  0  0  0  0  0  0  0
  1  2  2  0
  2  3  1  0
  2  4  1  0
  3 45  1  0
  4  5  2  0
  5  6  1  0
  6  7  2  0
  7  8  1  0
  7  9  1  0
  9 10  1  0
 10 11  1  0
 10 13  1  0
 11 12  1  0
 13 14  1  0
 14 15  2  0
 14 18  1  0
 15 16  1  0
 16 17  2  0
 16 20  1  0
 18 19  1  0
 19 20  1  0
 19 21  1  0
 21 22  1  0
 21 23  1  0
 23 24  1  0
 23 26  1  0
 24 25  1  0
 26 27  1  0
 27 28  1  0
 27 30  1  0
 28 29  1  0
 30 31  2  0
 31 32  1  0
 32 33  1  0
 32 34  1  0
 34 35  1  0
 34 37  1  0
 35 36  1  0
 37 38  1  0
 38 39  1  0
 38 41  1  0
 39 40  1  0
 41 42  2  0
 42 43  1  0
 43 44  1  0
 43 45  1  0
 45 46  1  0
 46 47  1  0
 46 48  1  0
 48 49  1  0
 48 51  1  0
 49 50  1  0
 51 52  1  0
 51 53  1  0
 53 54  1  0
 54 55  1  0
 55 56  2  0
 55 57  1  0
 57 58  1  0
 57 59  1  0
 59 60  1  0
 59 62  1  0
 60 61  1  0
 62 63  1  0
M  END
>  <s_m_entry_id>  (41) 
1093

>  <s_m_entry_name>  (41) 
2asp.1

>  <s_pdb_PDB_TITLE>  (41) 
STRUCTURE OF RABBIT ACTIN IN COMPLEX WITH REIDISPONGIOLIDE C

>  <s_m_Source_Path>  (41) 
/nfs/zone2/sindhikara/master/src/validation_scripts/tests/prime/macrocycle/BMS208

>  <s_m_Source_File>  (41) 
208refs.maegz

>  <i_m_Source_File_Index>  (41) 
183

>  <s_pdb_PDB_ID>  (41) 
2ASP

>  <r_pdb_PDB_R>  (41) 
0.163

>  <r_pdb_PDB_Rfree>  (41) 
0.193

>  <r_pdb_PDB_RESOLUTION>  (41) 
1.64

>  <s_m_Molecular_formula>  (41) 
C51H84O12

>  <r_m_Molecular_weight>  (41) 
889.23093

>  <i_m_Number_of_heavy_atoms>  (41) 
63

>  <i_m_Number_of_atoms>  (41) 
147

>  <s_user_Group>  (41) 
Example PDB

>  <s_user_Preparation>  (41) 
reference

>  <s_user_Primary_PMID>  (41) 
16192358                                                     

>  <s_user_Primary_DOI>  (41) 
10.1073/PNAS.0502089102     

>  <s_user_Unique_SMILES>  (41) 
CC[C@@H](OC)[C@@H](C)C(=O)CC[C@H](C)[C@H](OC)[C@H](C)[C@@H](OC(=O)/C=C/C=C(\C)C[C@H](C1)OC)[C@@H](C)/C=C/[C@H](OC)C[C@H](OC)[C@@H](C)/C=C/[C@@H](OC)C[C@H](OC)[C@@H](C)[C@@H](C2)OC(=O)C=C12

>  <s_user_Source>  (41) 
PDB

>  <s_user_InChI1S_Key>  (41) 
InChIKey=GATPHXXEPJBDKA-OODQJZQZSA-N

>  <s_user_Sample>  (41) 
TRAIN

>  <s_user_Name>  (41) 
Reidispongiolide C-like

>  <s_m_subgroup_title>  (41) 
208refs

>  <s_m_subgroupid>  (41) 
208refs

>  <b_m_subgroup_collapsed>  (41) 
0

$$$$
2C6H
     RDKit          3D

 32 33  0  0  1  0  0  0  0  0999 V2000
   20.2423   57.3027   47.9737 C   0  0  0  0  0  0  0  0  0  0  0  0
   21.0794   57.5977   46.7267 C   0  0  0  0  0  0  0  0  0  0  0  0
   20.2124   58.2137   45.5557 C   0  0  0  0  0  0  0  0  0  0  0  0
   19.5513   59.4747   45.9387 O   0  0  0  0  0  0  0  0  0  0  0  0
   18.2283   59.7247   46.1507 C   0  0  0  0  0  0  0  0  0  0  0  0
   17.3733   58.8877   46.0487 O   0  0  0  0  0  0  0  0  0  0  0  0
   17.9794   61.1507   46.4897 C   0  0  0  0  0  0  0  0  0  0  0  0
   17.8614   61.2177   48.0467 C   0  0  0  0  0  0  0  0  0  0  0  0
   16.6464   61.7817   45.8867 C   0  0  0  0  0  0  0  0  0  0  0  0
   16.7854   63.1627   46.4127 O   0  0  0  0  0  0  0  0  0  0  0  0
   15.7273   64.1347   46.5107 C   0  0  0  0  0  0  0  0  0  0  0  0
   14.4184   63.7087   46.0817 O   0  0  0  0  0  0  0  0  0  0  0  0
   13.4133   64.7927   46.1987 C   0  0  0  0  0  0  0  0  0  0  0  0
   12.0694   64.2667   45.7237 C   0  0  0  0  0  0  0  0  0  0  0  0
   13.2523   65.2767   47.6587 C   0  0  0  0  0  0  0  0  0  0  0  0
   14.6313   65.8177   48.1497 C   0  0  0  0  0  0  0  0  0  0  0  0
   14.6944   66.3617   49.5557 N   0  0  0  0  0  0  0  0  0  0  0  0
   15.2124   67.7357   49.4087 C   0  0  0  0  0  0  0  0  0  0  0  0
   13.3913   66.4807   50.2397 C   0  0  0  0  0  0  0  0  0  0  0  0
   15.7433   64.6777   47.9687 C   0  0  0  0  0  0  0  0  0  0  0  0
   17.0504   65.1847   48.2727 O   0  0  0  0  0  0  0  0  0  0  0  0
   16.6203   61.7927   44.2527 C   0  0  0  0  0  0  0  0  0  0  0  0
   15.2864   62.1277   43.6247 C   0  0  0  0  0  0  0  0  0  0  0  0
   17.7294   62.7067   43.6677 C   0  0  0  0  0  0  0  0  0  0  0  0
   18.7453   62.1917   42.5817 C   0  0  0  0  0  0  0  0  0  0  0  0
   18.6993   63.0667   41.3377 C   0  0  0  0  0  0  0  0  0  0  0  0
   18.5373   60.6527   42.1697 C   0  0  0  0  0  0  0  0  0  0  0  0
   17.7914   60.3347   41.2487 O   0  0  0  0  0  0  0  0  0  0  0  0
   19.1984   59.5837   42.9037 C   0  0  0  0  0  0  0  0  0  0  0  0
   20.4364   59.6647   43.3747 C   0  0  0  0  0  0  0  0  0  0  0  0
   21.0713   58.5317   44.2097 C   0  0  0  0  0  0  0  0  0  0  0  0
   22.4813   59.0647   44.5077 C   0  0  0  0  0  0  0  0  0  0  0  0
  1  2  1  0
  2  3  1  0
  3  4  1  0
  3 31  1  0
  4  5  1  0
  5  6  2  0
  5  7  1  0
  7  8  1  0
  7  9  1  0
  9 10  1  0
  9 22  1  0
 10 11  1  0
 11 12  1  0
 11 20  1  0
 12 13  1  0
 13 14  1  0
 13 15  1  0
 15 16  1  0
 16 17  1  0
 16 20  1  0
 17 18  1  0
 17 19  1  0
 20 21  1  0
 22 23  1  0
 22 24  1  0
 24 25  1  0
 25 26  1  0
 25 27  1  0
 27 28  2  0
 27 29  1  0
 29 30  2  0
 30 31  1  0
 31 32  1  0
M  CHG  1  17   1
M  END
>  <s_m_entry_id>  (42) 
1094

>  <s_m_entry_name>  (42) 
2c6h.1

>  <s_pdb_PDB_TITLE>  (42) 
CRYSTAL STRUCTURE OF YC-17-BOUND CYTOCHROME P450 PIKC (CYP107L1)

>  <s_m_Source_Path>  (42) 
/nfs/zone2/sindhikara/master/src/validation_scripts/tests/prime/macrocycle/BMS208

>  <s_m_Source_File>  (42) 
208refs.maegz

>  <i_m_Source_File_Index>  (42) 
184

>  <s_pdb_PDB_ID>  (42) 
2C6H

>  <r_pdb_PDB_R>  (42) 
0.195

>  <r_pdb_PDB_Rfree>  (42) 
0.231

>  <r_pdb_PDB_RESOLUTION>  (42) 
2.35

>  <s_m_Molecular_formula>  (42) 
C25H44N1O6

>  <r_m_Molecular_weight>  (42) 
454.63253

>  <i_m_Number_of_heavy_atoms>  (42) 
32

>  <i_m_Number_of_atoms>  (42) 
76

>  <s_user_Group>  (42) 
Example PDB

>  <s_user_Preparation>  (42) 
reference

>  <s_user_Primary_PMID>  (42) 
16825192                                                     

>  <s_user_Primary_DOI>  (42) 
10.1074/JBC.M605478200     

>  <s_user_Unique_SMILES>  (42) 
O=C1/C=C/[C@@H](C)[C@@H](CC)OC(=O)[C@H](C)[C@H]([C@@H](C)C[C@@H]1C)O[C@@H](O2)[C@@H](O)[C@H]([NH+](C)C)C[C@@H]2C

>  <s_user_Source>  (42) 
PDB

>  <s_user_InChI1S_Key>  (42) 
InChIKey=DZGHWPQKGWXOHD-OYZFACIPSA-N

>  <s_user_Sample>  (42) 
TRAIN

>  <s_m_subgroup_title>  (42) 
208refs

>  <s_m_subgroupid>  (42) 
208refs

>  <b_m_subgroup_collapsed>  (42) 
0

$$$$
2C7X
     RDKit          3D

 36 37  0  0  1  0  0  0  0  0999 V2000
   19.9770   61.9328   53.2388 C   0  0  0  0  0  0  0  0  0  0  0  0
   20.3000   62.1938   51.8058 C   0  0  0  0  0  0  0  0  0  0  0  0
   19.1660   61.6638   50.8998 C   0  0  0  0  0  0  0  0  0  0  0  0
   18.6560   62.6738   49.9218 O   0  0  0  0  0  0  0  0  0  0  0  0
   17.4990   63.4428   50.0498 C   0  0  0  0  0  0  0  0  0  0  0  0
   16.7590   63.3318   51.0188 O   0  0  0  0  0  0  0  0  0  0  0  0
   17.1610   64.4528   48.9528 C   0  0  0  0  0  0  0  0  0  0  0  0
   16.4540   65.7178   49.5178 C   0  0  0  0  0  0  0  0  0  0  0  0
   16.2680   63.8358   47.8668 C   0  0  0  0  0  0  0  0  0  0  0  0
   15.1690   63.3478   48.2108 O   0  0  0  0  0  0  0  0  0  0  0  0
   16.6910   63.8908   46.3578 C   0  0  0  0  0  0  0  0  0  0  0  0
   18.2440   63.9838   46.2948 C   0  0  0  0  0  0  0  0  0  0  0  0
   16.2050   62.6568   45.4728 C   0  0  0  0  0  0  0  0  0  0  0  0
   17.1890   62.2908   44.4218 O   0  0  0  0  0  0  0  0  0  0  0  0
   16.5410   62.3848   43.1028 C   0  0  0  0  0  0  0  0  0  0  0  0
   15.0630   62.2508   43.1508 O   0  0  0  0  0  0  0  0  0  0  0  0
   14.5490   62.0608   41.8128 C   0  0  0  0  0  0  0  0  0  0  0  0
   13.0700   61.7028   41.8368 C   0  0  0  0  0  0  0  0  0  0  0  0
   14.7790   63.3288   41.0148 C   0  0  0  0  0  0  0  0  0  0  0  0
   16.3330   63.5998   40.9058 C   0  0  0  0  0  0  0  0  0  0  0  0
   16.5780   64.8558   40.1118 N   0  0  0  0  0  0  0  0  0  0  0  0
   17.5120   65.7678   40.8398 C   0  0  0  0  0  0  0  0  0  0  0  0
   17.2030   64.5018   38.8218 C   0  0  0  0  0  0  0  0  0  0  0  0
   16.9710   63.6688   42.3708 C   0  0  0  0  0  0  0  0  0  0  0  0
   16.4710   64.8208   43.0858 O   0  0  0  0  0  0  0  0  0  0  0  0
   15.8450   61.2628   46.2328 C   0  0  0  0  0  0  0  0  0  0  0  0
   14.3770   60.8688   45.9948 C   0  0  0  0  0  0  0  0  0  0  0  0
   16.8890   60.1708   45.7478 C   0  0  0  0  0  0  0  0  0  0  0  0
   16.8980   58.7058   46.2008 C   0  0  0  0  0  0  0  0  0  0  0  0
   17.8030   57.7428   45.4108 C   0  0  0  0  0  0  0  0  0  0  0  0
   17.2410   58.6758   47.6968 C   0  0  0  0  0  0  0  0  0  0  0  0
   16.4550   58.1238   48.4598 O   0  0  0  0  0  0  0  0  0  0  0  0
   18.4650   59.2748   48.2678 C   0  0  0  0  0  0  0  0  0  0  0  0
   18.4880   59.7758   49.4988 C   0  0  0  0  0  0  0  0  0  0  0  0
   19.6790   60.4178   50.1588 C   0  0  0  0  0  0  0  0  0  0  0  0
   20.7950   60.8388   49.1368 C   0  0  0  0  0  0  0  0  0  0  0  0
  1  2  1  0
  2  3  1  0
  3  4  1  0
  3 35  1  0
  4  5  1  0
  5  6  2  0
  5  7  1  0
  7  8  1  0
  7  9  1  0
  9 10  2  0
  9 11  1  0
 11 12  1  0
 11 13  1  0
 13 14  1  0
 13 26  1  0
 14 15  1  0
 15 16  1  0
 15 24  1  0
 16 17  1  0
 17 18  1  0
 17 19  1  0
 19 20  1  0
 20 21  1  0
 20 24  1  0
 21 22  1  0
 21 23  1  0
 24 25  1  0
 26 27  1  0
 26 28  1  0
 28 29  1  0
 29 30  1  0
 29 31  1  0
 31 32  2  0
 31 33  1  0
 33 34  2  0
 34 35  1  0
 35 36  1  0
M  CHG  1  21   1
M  END
>  <s_m_entry_id>  (43) 
1095

>  <s_m_entry_name>  (43) 
2c7x.1

>  <s_pdb_PDB_TITLE>  (43) 
CRYSTAL STRUCTURE OF NARBOMYCIN-BOUND CYTOCHROME P450 PIKC (CYP107L1)

>  <s_m_Source_Path>  (43) 
/nfs/zone2/sindhikara/master/src/validation_scripts/tests/prime/macrocycle/BMS208

>  <s_m_Source_File>  (43) 
208refs.maegz

>  <i_m_Source_File_Index>  (43) 
185

>  <s_pdb_PDB_ID>  (43) 
2C7X

>  <r_pdb_PDB_R>  (43) 
0.207

>  <r_pdb_PDB_Rfree>  (43) 
0.232

>  <r_pdb_PDB_RESOLUTION>  (43) 
1.75

>  <s_m_Molecular_formula>  (43) 
C28H48N1O7

>  <r_m_Molecular_weight>  (43) 
510.69726

>  <i_m_Number_of_heavy_atoms>  (43) 
36

>  <i_m_Number_of_atoms>  (43) 
84

>  <s_user_Group>  (43) 
Example PDB

>  <s_user_Preparation>  (43) 
reference

>  <s_user_Primary_PMID>  (43) 
16825192                                                     

>  <s_user_Primary_DOI>  (43) 
10.1074/JBC.M605478200     

>  <s_user_Unique_SMILES>  (43) 
O=C1/C=C/[C@@H](C)[C@@H](CC)OC(=O)[C@H](C)C(=O)[C@@H](C)[C@H]([C@@H](C)C[C@H]1C)O[C@@H](O2)[C@H](O)[C@H]([NH+](C)C)C[C@@H]2C

>  <s_user_Source>  (43) 
PDB

>  <s_user_InChI1S_Key>  (43) 
InChIKey=OXFYAOOMMKGGAI-ZMIJTAGNSA-N

>  <s_user_Sample>  (43) 
TEST

>  <s_user_Name>  (43) 
Narbomycin

>  <s_user_Microstate_Comment>  (43) 
2vzm and 2c7x both claim to be narbomycin, but only 2c7x has the correct stereochem. 

>  <s_m_subgroup_title>  (43) 
208refs

>  <s_m_subgroupid>  (43) 
208refs

>  <b_m_subgroup_collapsed>  (43) 
0

$$$$
2CV3_conf1
     RDKit          3D

 91 97  0  0  1  0  0  0  0  0999 V2000
   -2.5339    0.2099   -1.1921 N   0  0  0  0  0  0  0  0  0  0  0  0
   -2.1444    0.9574   -0.0000 C   0  0  0  0  0  0  0  0  0  0  0  0
   -0.6581    1.1596   -0.0000 C   0  0  0  0  0  0  0  0  0  0  0  0
   -0.0909    2.2482    0.0000 O   0  0  0  0  0  0  0  0  0  0  0  0
   -2.5446    0.1894    1.2247 C   0  0  0  0  0  0  0  0  0  0  0  0
   -1.9134   -1.0378    1.2247 O   0  0  0  0  0  0  0  0  0  0  0  0
   -4.0309   -0.0128    1.2247 C   0  0  0  0  0  0  0  0  0  0  0  0
    0.0000    0.0000    0.0000 N   0  0  0  0  0  0  0  0  0  0  0  0
    1.4600    0.0000    0.0000 C   0  0  0  0  0  0  0  0  0  0  0  0
    1.9187   -1.2131   -0.7741 C   0  0  0  0  0  0  0  0  0  0  0  0
    2.8351   -1.0895   -1.6090 O   0  0  0  0  0  0  0  0  0  0  0  0
    1.9470    0.0000    1.4067 C   0  0  0  0  0  0  0  0  0  0  0  0
    3.2794    0.1955    1.5364 O   0  0  0  0  0  0  0  0  0  0  0  0
    1.5734   -1.2947    2.0657 C   0  0  0  0  0  0  0  0  0  0  0  0
    1.2699   -2.5120   -0.5384 N   0  0  0  0  0  0  0  0  0  0  0  0
    1.6021   -3.6874   -1.3270 C   0  0  0  0  0  0  0  0  0  0  0  0
    2.6237   -4.6636   -0.8097 C   0  0  0  0  0  0  0  0  0  0  0  0
    2.4721   -5.8792   -1.0962 O   0  0  0  0  0  0  0  0  0  0  0  0
    1.9324   -3.3519   -2.7512 C   0  0  0  0  0  0  0  0  0  0  0  0
    0.9733   -4.0545   -3.6657 C   0  0  0  0  0  0  0  0  0  0  0  0
    1.3036   -3.7190   -5.0899 C   0  0  0  0  0  0  0  0  0  0  0  0
    1.0837   -5.5367   -3.4627 C   0  0  0  0  0  0  0  0  0  0  0  0
    3.7807   -4.2145   -0.0268 N   0  0  0  0  0  0  0  0  0  0  0  0
    4.8171   -5.1586    0.4235 C   0  0  0  0  0  0  0  0  0  0  0  0
    5.5990   -4.6212    1.6088 C   0  0  0  0  0  0  0  0  0  0  0  0
    6.3792   -3.6653    1.4308 O   0  0  0  0  0  0  0  0  0  0  0  0
    5.7047   -5.6389   -0.6939 C   0  0  0  0  0  0  0  0  0  0  0  0
    6.2611   -4.6532   -1.6758 C   0  0  0  0  0  0  0  0  0  0  0  0
    5.6476   -4.6569   -3.0409 C   0  0  0  0  0  0  0  0  0  0  0  0
    5.6448   -3.3489   -3.7650 C   0  0  0  0  0  0  0  0  0  0  0  0
    6.9860   -2.8367   -4.0563 N   0  0  0  0  0  0  0  0  0  0  0  0
    5.4384   -5.2222    2.9368 N   0  0  0  0  0  0  0  0  0  0  0  0
    6.2354   -4.7635    4.0968 C   0  0  0  0  0  0  0  0  0  0  0  0
    7.4071   -5.6886    4.3030 C   0  0  0  0  0  0  0  0  0  0  0  0
    7.1704   -6.9417    4.2998 O   0  0  0  0  0  0  0  0  0  0  0  0
    5.3277   -5.0421    5.2581 C   0  0  0  0  0  0  0  0  0  0  0  0
    4.0523   -4.2703    5.0922 C   0  0  0  0  0  0  0  0  0  0  0  0
    4.0845   -2.8829    5.0164 C   0  0  0  0  0  0  0  0  0  0  0  0
    2.8384   -4.9425    5.0142 C   0  0  0  0  0  0  0  0  0  0  0  0
    2.9027   -2.1678    4.8627 C   0  0  0  0  0  0  0  0  0  0  0  0
    1.6566   -4.2274    4.8604 C   0  0  0  0  0  0  0  0  0  0  0  0
    1.6888   -2.8400    4.7847 C   0  0  0  0  0  0  0  0  0  0  0  0
    8.7739   -5.2286    4.5226 N   0  0  0  0  0  0  0  0  0  0  0  0
    9.1560   -3.7925    4.5914 C   0  0  0  0  0  0  0  0  0  0  0  0
    9.3693   -3.0666    3.2464 C   0  0  0  0  0  0  0  0  0  0  0  0
    9.2622   -3.7121    2.1971 O   0  0  0  0  0  0  0  0  0  0  0  0
   10.5184   -3.9513    5.4004 C   0  0  0  0  0  0  0  0  0  0  0  0
   11.1291   -5.2488    4.7620 C   0  0  0  0  0  0  0  0  0  0  0  0
    9.8881   -6.2179    4.7042 C   0  0  0  0  0  0  0  0  0  0  0  0
    9.6879   -1.6371    3.2607 N   0  0  0  0  0  0  0  0  0  0  0  0
    9.8300   -0.8493    2.0379 C   0  0  0  0  0  0  0  0  0  0  0  0
    8.5008   -0.6993    1.3295 C   0  0  0  0  0  0  0  0  0  0  0  0
    8.1891   -1.5155    0.4383 O   0  0  0  0  0  0  0  0  0  0  0  0
   10.9794   -1.1905    1.1397 C   0  0  0  0  0  0  0  0  0  0  0  0
   11.1223   -0.2154    0.1867 O   0  0  0  0  0  0  0  0  0  0  0  0
    7.6005    0.4030    1.7031 N   0  0  0  0  0  0  0  0  0  0  0  0
    6.3075    0.6059    1.0281 C   0  0  0  0  0  0  0  0  0  0  0  0
    6.5653    1.1572   -0.3617 C   0  0  0  0  0  0  0  0  0  0  0  0
    6.1006    0.5429   -1.3423 O   0  0  0  0  0  0  0  0  0  0  0  0
    5.3980    1.4945    1.8121 C   0  0  0  0  0  0  0  0  0  0  0  0
    3.9353    1.3976    1.4373 C   0  0  0  0  0  0  0  0  0  0  0  0
    3.3483    2.4352    1.0490 O   0  0  0  0  0  0  0  0  0  0  0  0
    7.3737    2.3696   -0.5307 N   0  0  0  0  0  0  0  0  0  0  0  0
    7.7041    2.9077   -1.8480 C   0  0  0  0  0  0  0  0  0  0  0  0
    9.1301    2.5531   -2.2215 C   0  0  0  0  0  0  0  0  0  0  0  0
    9.9882    3.4552   -2.2424 O   0  0  0  0  0  0  0  0  0  0  0  0
    7.6411    4.4021   -1.7349 C   0  0  0  0  0  0  0  0  0  0  0  0
    6.6111    4.9326   -2.6876 C   0  0  0  0  0  0  0  0  0  0  0  0
    5.8410    4.1637   -3.5366 C   0  0  0  0  0  0  0  0  0  0  0  0
    6.2392    6.3020   -2.8935 C   0  0  0  0  0  0  0  0  0  0  0  0
    5.0124    4.9913   -4.2561 N   0  0  0  0  0  0  0  0  0  0  0  0
    5.2210    6.3066   -3.8964 C   0  0  0  0  0  0  0  0  0  0  0  0
    6.6516    7.5258   -2.3436 C   0  0  0  0  0  0  0  0  0  0  0  0
    4.6225    7.4873   -4.3477 C   0  0  0  0  0  0  0  0  0  0  0  0
    6.0545    8.7037   -2.7940 C   0  0  0  0  0  0  0  0  0  0  0  0
    5.0636    8.6812   -3.7730 C   0  0  0  0  0  0  0  0  0  0  0  0
    9.4666    1.1581   -2.5578 N   0  0  0  0  0  0  0  0  0  0  0  0
   10.8004    0.7745   -3.0212 C   0  0  0  0  0  0  0  0  0  0  0  0
   10.8235   -0.4489   -3.9207 C   0  0  0  0  0  0  0  0  0  0  0  0
   11.4082   -0.3822   -5.0303 O   0  0  0  0  0  0  0  0  0  0  0  0
   11.8625    0.7869   -1.9806 C   0  0  0  0  0  0  0  0  0  0  0  0
   11.8654   -0.3264   -0.9575 C   0  0  0  0  0  0  0  0  0  0  0  0
   12.5712   -1.3391   -1.1894 O   0  0  0  0  0  0  0  0  0  0  0  0
   10.1704   -1.6994   -3.5083 N   0  0  0  0  0  0  0  0  0  0  0  0
   10.1594   -2.8896   -4.3612 C   0  0  0  0  0  0  0  0  0  0  0  0
   11.5227   -3.0943   -4.9523 C   0  0  0  0  0  0  0  0  0  0  0  0
   11.6717   -3.0907   -6.1892 O   0  0  0  0  0  0  0  0  0  0  0  0
    9.1560   -2.8153   -5.4547 C   0  0  0  0  0  0  0  0  0  0  0  0
    7.7996   -3.4008   -5.1394 C   0  0  0  0  0  0  0  0  0  0  0  0
    7.3786   -4.3579   -5.8244 O   0  0  0  0  0  0  0  0  0  0  0  0
   12.5050   -3.2678   -4.2061 O   0  0  0  0  0  0  0  0  0  0  0  0
  1  2  1  0
  2  3  1  0
  2  5  1  0
  3  4  2  0
  3  8  1  0
  5  6  1  0
  5  7  1  0
  8  9  1  0
  9 10  1  0
  9 12  1  0
 10 11  2  0
 10 15  1  0
 12 13  1  0
 12 14  1  0
 13 61  1  0
 15 16  1  0
 16 17  1  0
 16 19  1  0
 17 18  2  0
 17 23  1  0
 19 20  1  0
 20 21  1  0
 20 22  1  0
 23 24  1  0
 24 25  1  0
 24 27  1  0
 25 26  2  0
 25 32  1  0
 27 28  1  0
 28 29  1  0
 29 30  1  0
 30 31  1  0
 31 89  1  0
 32 33  1  0
 33 34  1  0
 33 36  1  0
 34 35  2  0
 34 43  1  0
 36 37  1  0
 37 38  2  0
 37 39  1  0
 38 40  1  0
 39 41  2  0
 40 42  2  0
 41 42  1  0
 43 44  1  0
 43 49  1  0
 44 45  1  0
 44 47  1  0
 45 46  2  0
 45 50  1  0
 47 48  1  0
 48 49  1  0
 50 51  1  0
 51 52  1  0
 51 54  1  0
 52 53  2  0
 52 56  1  0
 54 55  1  0
 55 82  1  0
 56 57  1  0
 57 58  1  0
 57 60  1  0
 58 59  2  0
 58 63  1  0
 60 61  1  0
 61 62  2  0
 63 64  1  0
 64 65  1  0
 64 67  1  0
 65 66  2  0
 65 77  1  0
 67 68  1  0
 68 69  2  0
 68 70  1  0
 69 71  1  0
 70 72  2  0
 70 73  1  0
 71 72  1  0
 72 74  1  0
 73 75  2  0
 74 76  2  0
 75 76  1  0
 77 78  1  0
 78 79  1  0
 78 81  1  0
 79 80  2  0
 79 84  1  0
 81 82  1  0
 82 83  2  0
 84 85  1  0
 85 86  1  0
 85 88  1  0
 86 87  2  0
 86 91  1  0
 88 89  1  0
 89 90  2  0
M  CHG  2   1   1  91  -1
M  END
>  <i_m_stars>  (44) 
2

>  <s_m_entry_id>  (44) 
1043

>  <s_m_entry_name>  (44) 
208refs.133

>  <s_m_Source_Path>  (44) 
/nfs/zone2/sindhikara/master/src/validation_scripts/tests/prime/macrocycle/BMS208

>  <s_m_Source_File>  (44) 
208refs.maegz

>  <i_m_Source_File_Index>  (44) 
133

>  <r_lp_tautomer_probability>  (44) 
0.999999866000018

>  <r_epik_Ionization_Penalty>  (44) 
  0.1468

>  <r_epik_Ionization_Penalty_Charging>  (44) 
  0.1460

>  <r_epik_Ionization_Penalty_Neutral>  (44) 
  0.0008

>  <r_epik_State_Penalty>  (44) 
  0.1334

>  <i_epik_Tot_Q>  (44) 
0

>  <i_lp_mmshare_version>  (44) 
32005

>  <r_pdb_PDB_RESOLUTION>  (44) 
1.9

>  <r_pdb_PDB_EXPDTA_PH>  (44) 
5

>  <s_user_comment>  (44) 
indole ring has moderately high temperature factors

>  <r_f3d_energy>  (44) 
319.76785019653

>  <s_epik_Chemistry_Notes>  (44) 
This compound has an ester and may undergo hydrolysis at high or low pH.

>  <s_user_Group>  (44) 
B1

>  <s_user_mc_backbone_quality>  (44) 
B

>  <s_user_overall_b-factors>  (44) 
D

>  <s_user_ligand_name>  (44) 
ELASTASE COMPLEXED W MACROCLYCLIC PEPTIDE INHIBITOR

>  <s_m_subgroup_title>  (44) 
208refs

>  <s_m_subgroupid>  (44) 
208refs

>  <b_m_subgroup_collapsed>  (44) 
0

$$$$
2DG4
     RDKit          3D

 65 68  0  0  1  0  0  0  0  0999 V2000
   18.6506   58.1289   45.4488 C   0  0  0  0  0  0  0  0  0  0  0  0
   18.1953   59.2168   46.2918 O   0  0  0  0  0  0  0  0  0  0  0  0
   19.4041   58.3277   44.5053 O   0  0  0  0  0  0  0  0  0  0  0  0
   18.1748   56.7435   45.7941 C   0  0  0  0  0  0  0  0  0  0  0  0
   17.6223   56.0200   44.5585 C   0  0  0  0  0  0  0  0  0  0  0  0
   16.2110   56.4518   44.1706 C   0  0  0  0  0  0  0  0  0  0  0  0
   15.2895   56.3544   45.3769 C   0  0  0  0  0  0  0  0  0  0  0  0
   15.8309   57.2267   46.5050 C   0  0  0  0  0  0  0  0  0  0  0  0
   17.1728   56.7502   46.8836 N   0  0  0  0  0  0  0  0  0  0  0  0
   17.5592   56.3637   48.1098 C   0  0  0  0  0  0  0  0  0  0  0  0
   18.7111   56.0475   48.3726 O   0  0  0  0  0  0  0  0  0  0  0  0
   16.5517   56.3111   49.1746 C   0  0  0  0  0  0  0  0  0  0  0  0
   15.8710   55.3041   49.2834 O   0  0  0  0  0  0  0  0  0  0  0  0
   16.3176   57.4796   50.1111 C   0  0  0  0  0  0  0  0  0  0  0  0
   15.5457   58.4095   49.3447 O   0  0  0  0  0  0  0  0  0  0  0  0
   15.5656   57.0431   51.2510 O   0  0  0  0  0  0  0  0  0  0  0  0
   17.6249   58.1310   50.5962 C   0  0  0  0  0  0  0  0  0  0  0  0
   17.3689   59.4859   51.2578 C   0  0  0  0  0  0  0  0  0  0  0  0
   16.4949   60.3843   50.3846 C   0  0  0  0  0  0  0  0  0  0  0  0
   15.2185   59.6637   49.9520 C   0  0  0  0  0  0  0  0  0  0  0  0
   14.4818   60.4691   48.8857 C   0  0  0  0  0  0  0  0  0  0  0  0
   13.6803   61.6613   49.4119 C   0  0  0  0  0  0  0  0  0  0  0  0
   12.6641   61.2172   50.3149 O   0  0  0  0  0  0  0  0  0  0  0  0
   13.0999   62.4021   48.2315 C   0  0  0  0  0  0  0  0  0  0  0  0
   13.6601   63.5786   47.8827 C   0  0  0  0  0  0  0  0  0  0  0  0
   13.2202   64.3954   46.7491 C   0  0  0  0  0  0  0  0  0  0  0  0
   13.8041   65.5739   46.5328 C   0  0  0  0  0  0  0  0  0  0  0  0
   13.4226   66.4120   45.3982 C   0  0  0  0  0  0  0  0  0  0  0  0
   14.2668   67.3646   45.0019 C   0  0  0  0  0  0  0  0  0  0  0  0
   13.9597   68.2559   43.8163 C   0  0  0  0  0  0  0  0  0  0  0  0
   15.1078   68.2002   42.8048 C   0  0  0  0  0  0  0  0  0  0  0  0
   15.6424   66.7864   42.5609 C   0  0  0  0  0  0  0  0  0  0  0  0
   17.1142   66.8396   42.2350 C   0  0  0  0  0  0  0  0  0  0  0  0
   17.4861   66.9306   41.0747 O   0  0  0  0  0  0  0  0  0  0  0  0
   18.1347   66.7985   43.3478 C   0  0  0  0  0  0  0  0  0  0  0  0
   19.2978   67.5425   42.9826 O   0  0  0  0  0  0  0  0  0  0  0  0
   18.5808   65.3707   43.6699 C   0  0  0  0  0  0  0  0  0  0  0  0
   18.8132   64.6557   42.4510 O   0  0  0  0  0  0  0  0  0  0  0  0
   17.5858   64.6387   44.5336 C   0  0  0  0  0  0  0  0  0  0  0  0
   16.8521   63.6443   43.9942 C   0  0  0  0  0  0  0  0  0  0  0  0
   15.8395   62.8315   44.7708 C   0  0  0  0  0  0  0  0  0  0  0  0
   16.4663   61.5122   45.1401 C   0  0  0  0  0  0  0  0  0  0  0  0
   16.1753   60.4917   44.5342 O   0  0  0  0  0  0  0  0  0  0  0  0
   17.4664   61.4700   46.2784 C   0  0  0  0  0  0  0  0  0  0  0  0
   18.6340   60.5329   45.9668 C   0  0  0  0  0  0  0  0  0  0  0  0
   19.9162   60.8323   46.7611 C   0  0  0  0  0  0  0  0  0  0  0  0
   20.6340   62.1246   46.3570 C   0  0  0  0  0  0  0  0  0  0  0  0
   21.0698   62.2234   44.8926 C   0  0  0  0  0  0  0  0  0  0  0  0
   21.7865   63.5634   44.7117 C   0  0  0  0  0  0  0  0  0  0  0  0
   22.3508   63.7663   43.3041 C   0  0  0  0  0  0  0  0  0  0  0  0
   23.1499   64.9509   43.2909 O   0  0  0  0  0  0  0  0  0  0  0  0
   23.2080   62.5820   42.8542 C   0  0  0  0  0  0  0  0  0  0  0  0
   23.5642   62.7488   41.4768 O   0  0  0  0  0  0  0  0  0  0  0  0
   22.4900   61.2474   43.0490 C   0  0  0  0  0  0  0  0  0  0  0  0
   22.0070   61.0790   44.4909 C   0  0  0  0  0  0  0  0  0  0  0  0
   18.4306   57.2355   51.5372 C   0  0  0  0  0  0  0  0  0  0  0  0
   11.9329   61.8293   47.4700 C   0  0  0  0  0  0  0  0  0  0  0  0
   13.7155   69.6939   44.2610 C   0  0  0  0  0  0  0  0  0  0  0  0
   14.8541   66.0631   41.4688 C   0  0  0  0  0  0  0  0  0  0  0  0
   17.4461   65.0256   45.9831 C   0  0  0  0  0  0  0  0  0  0  0  0
   14.5803   62.6439   43.9258 C   0  0  0  0  0  0  0  0  0  0  0  0
   19.6776   60.8328   48.2723 C   0  0  0  0  0  0  0  0  0  0  0  0
   12.3044   62.2266   51.2568 C   0  0  0  0  0  0  0  0  0  0  0  0
   19.2840   68.8651   43.5182 C   0  0  0  0  0  0  0  0  0  0  0  0
   22.6608   65.9388   42.3826 C   0  0  0  0  0  0  0  0  0  0  0  0
  1  2  1  0
  1  3  2  0
  1  4  1  0
  2 45  1  0
  4  5  1  0
  4  9  1  0
  5  6  1  0
  6  7  1  0
  7  8  1  0
  8  9  1  0
  9 10  1  0
 10 11  2  0
 10 12  1  0
 12 13  2  0
 12 14  1  0
 14 15  1  0
 14 16  1  0
 14 17  1  0
 15 20  1  0
 17 18  1  0
 17 56  1  0
 18 19  1  0
 19 20  1  0
 20 21  1  0
 21 22  1  0
 22 23  1  0
 22 24  1  0
 23 63  1  0
 24 25  2  0
 24 57  1  0
 25 26  1  0
 26 27  2  0
 27 28  1  0
 28 29  2  0
 29 30  1  0
 30 31  1  0
 30 58  1  0
 31 32  1  0
 32 33  1  0
 32 59  1  0
 33 34  2  0
 33 35  1  0
 35 36  1  0
 35 37  1  0
 36 64  1  0
 37 38  1  0
 37 39  1  0
 39 40  2  0
 39 60  1  0
 40 41  1  0
 41 42  1  0
 41 61  1  0
 42 43  2  0
 42 44  1  0
 44 45  1  0
 45 46  1  0
 46 47  1  0
 46 62  1  0
 47 48  1  0
 48 49  1  0
 48 55  1  0
 49 50  1  0
 50 51  1  0
 50 52  1  0
 51 65  1  0
 52 53  1  0
 52 54  1  0
 54 55  1  0
M  END
>  <s_m_entry_id>  (45) 
1096

>  <s_m_entry_name>  (45) 
2dg4.1

>  <s_pdb_PDB_TITLE>  (45) 
FK506-BINDING PROTEIN MUTANT WF59 COMPLEXED WITH RAPAMYCIN

>  <s_m_Source_Path>  (45) 
/nfs/zone2/sindhikara/master/src/validation_scripts/tests/prime/macrocycle/BMS208

>  <s_m_Source_File>  (45) 
208refs.maegz

>  <i_m_Source_File_Index>  (45) 
186

>  <s_pdb_PDB_ID>  (45) 
2DG4

>  <r_pdb_PDB_R>  (45) 
0.195

>  <r_pdb_PDB_Rfree>  (45) 
0.213

>  <r_pdb_PDB_RESOLUTION>  (45) 
1.7

>  <s_m_Molecular_formula>  (45) 
C51H79N1O13

>  <r_m_Molecular_weight>  (45) 
914.19718

>  <i_m_Number_of_heavy_atoms>  (45) 
65

>  <i_m_Number_of_atoms>  (45) 
144

>  <s_user_Group>  (45) 
Example PDB

>  <s_user_Preparation>  (45) 
reference

>  <s_user_Primary_PMID>  (45) 
12600203                                                     

>  <s_user_Primary_DOI>  (45) 
10.1021/BI020564A      

>  <s_user_Unique_SMILES>  (45) 
C1C[C@@H](O)[C@H](OC)C[C@@H]1C[C@@H](C)[C@@H](OC(=O)[C@H]2N(C(=O)C3=O)CCCC2)CC(=O)[C@H](C)/C=C(\C)[C@@H](O)[C@@H](OC)C(=O)[C@H](C)C[C@H](C)/C=C/C=C/C=C(\C)[C@@H](OC)C[C@@H](O4)CC[C@@H](C)[C@]34O

>  <s_user_Source>  (45) 
PDB

>  <s_user_InChI1S_Key>  (45) 
InChIKey=QFJCIRLUMZQUOT-HPLJOQBZSA-N

>  <s_user_Sample>  (45) 
TEST

>  <s_user_Name>  (45) 
Rapamycin

>  <s_m_subgroup_title>  (45) 
208refs

>  <s_m_subgroupid>  (45) 
208refs

>  <b_m_subgroup_collapsed>  (45) 
0

$$$$
2F3E
     RDKit          3D

 45 45  0  0  1  0  0  0  0  0999 V2000
   31.5950    8.5370   15.4440 S   0  0  0  0  0  0  0  0  0  0  0  0
   32.3940    6.8820   15.5310 C   0  0  0  0  0  0  0  0  0  0  0  0
   31.3630    5.8880   14.8940 C   0  0  0  0  0  0  0  0  0  0  0  0
   30.3040    5.6570   15.8710 N   0  0  0  0  0  0  0  0  0  0  0  0
   29.0060    5.7060   15.4860 C   0  0  0  0  0  0  0  0  0  0  0  0
   27.9870    5.4130   16.5780 C   0  0  0  0  0  0  0  0  0  0  0  0
   28.0540    6.4990   17.5540 N   0  0  0  0  0  0  0  0  0  0  0  0
   27.6110    6.3170   18.8190 C   0  0  0  0  0  0  0  0  0  0  0  0
   27.7570    7.5040   19.7220 C   0  0  0  0  0  0  0  0  0  0  0  0
   29.2420    7.5520   20.0720 C   0  0  0  0  0  0  0  0  0  0  0  0
   29.5800    9.0960   20.8870 S   0  0  0  0  0  0  0  0  0  0  0  0
   31.3730    9.0660   20.5590 C   0  0  0  0  0  0  0  0  0  0  0  0
   31.6750    9.5930   19.1690 C   0  0  0  0  0  0  0  0  0  0  0  0
   32.0440    8.8050   18.1490 C   0  0  0  0  0  0  0  0  0  0  0  0
   32.3960    9.4170   16.8200 C   0  0  0  0  0  0  0  0  0  0  0  0
   26.8870    7.3750   20.8910 N   0  0  0  0  0  0  0  0  0  0  0  0
   25.5410    7.4390   20.6940 C   0  0  0  0  0  0  0  0  0  0  0  0
   25.0230    7.6400   19.5950 O   0  0  0  0  0  0  0  0  0  0  0  0
   24.8270    7.2460   21.8540 O   0  0  0  0  0  0  0  0  0  0  0  0
   23.3540    7.2510   21.6710 C   0  0  0  0  0  0  0  0  0  0  0  0
   22.6820    7.0010   23.0440 C   0  0  0  0  0  0  0  0  0  0  0  0
   22.8420    8.6170   21.1280 C   0  0  0  0  0  0  0  0  0  0  0  0
   22.9120    6.1060   20.7160 C   0  0  0  0  0  0  0  0  0  0  0  0
   27.1240    5.2840   19.2480 O   0  0  0  0  0  0  0  0  0  0  0  0
   26.5360    5.2110   16.0490 C   0  0  0  0  0  0  0  0  0  0  0  0
   28.6530    5.9570   14.3430 O   0  0  0  0  0  0  0  0  0  0  0  0
   32.0430    4.5570   14.4090 C   0  0  0  0  0  0  0  0  0  0  0  0
   32.6830    3.9000   15.4840 O   0  0  0  0  0  0  0  0  0  0  0  0
   31.0440    3.5260   13.8540 C   0  0  0  0  0  0  0  0  0  0  0  0
   31.8410    2.6610   12.8760 C   0  0  0  0  0  0  0  0  0  0  0  0
   31.2100    1.2720   12.6790 C   0  0  0  0  0  0  0  0  0  0  0  0
   31.7910    3.3110   11.5070 C   0  0  0  0  0  0  0  0  0  0  0  0
   30.8060    3.9620   11.1850 O   0  0  0  0  0  0  0  0  0  0  0  0
   32.8570    3.1370   10.7170 N   0  0  0  0  0  0  0  0  0  0  0  0
   32.8350    3.7200    9.3760 C   0  0  0  0  0  0  0  0  0  0  0  0
   34.2290    3.7060    8.7150 C   0  0  0  0  0  0  0  0  0  0  0  0
   34.6480    2.2580    8.4600 C   0  0  0  0  0  0  0  0  0  0  0  0
   34.2030    4.4480    7.3620 C   0  0  0  0  0  0  0  0  0  0  0  0
   31.8230    2.9820    8.5390 C   0  0  0  0  0  0  0  0  0  0  0  0
   31.6320    1.7890    8.7560 O   0  0  0  0  0  0  0  0  0  0  0  0
   31.1670    3.6850    7.5900 N   0  0  0  0  0  0  0  0  0  0  0  0
   30.1730    2.9780    6.7790 C   0  0  0  0  0  0  0  0  0  0  0  0
   29.1020    3.9650    6.2750 C   0  0  0  0  0  0  0  0  0  0  0  0
   28.0550    4.1920    7.3720 C   0  0  0  0  0  0  0  0  0  0  0  0
   26.9960    5.1660    6.8320 C   0  0  0  0  0  0  0  0  0  0  0  0
  1  2  1  0
  1 15  1  0
  2  3  1  0
  3  4  1  0
  3 27  1  0
  4  5  1  0
  5  6  1  0
  5 26  2  0
  6  7  1  0
  6 25  1  0
  7  8  1  0
  8  9  1  0
  8 24  2  0
  9 10  1  0
  9 16  1  0
 10 11  1  0
 11 12  1  0
 12 13  1  0
 13 14  2  0
 14 15  1  0
 16 17  1  0
 17 18  2  0
 17 19  1  0
 19 20  1  0
 20 21  1  0
 20 22  1  0
 20 23  1  0
 27 28  1  0
 27 29  1  0
 29 30  1  0
 30 31  1  0
 30 32  1  0
 32 33  2  0
 32 34  1  0
 34 35  1  0
 35 36  1  0
 35 39  1  0
 36 37  1  0
 36 38  1  0
 39 40  2  0
 39 41  1  0
 41 42  1  0
 42 43  1  0
 43 44  1  0
 44 45  1  0
M  END
>  <s_m_entry_id>  (46) 
1097

>  <s_m_entry_name>  (46) 
2f3e.1

>  <s_pdb_PDB_TITLE>  (46) 
CRYSTAL STRUCTURE OF THE BACE COMPLEX WITH AXQ093, A MACROCYCLIC INHIBITOR

>  <s_m_Source_Path>  (46) 
/nfs/zone2/sindhikara/master/src/validation_scripts/tests/prime/macrocycle/BMS208

>  <s_m_Source_File>  (46) 
208refs.maegz

>  <i_m_Source_File_Index>  (46) 
187

>  <s_pdb_PDB_ID>  (46) 
2F3E

>  <r_pdb_PDB_R>  (46) 
0.206

>  <r_pdb_PDB_Rfree>  (46) 
0.237

>  <r_pdb_PDB_RESOLUTION>  (46) 
2.11

>  <s_m_Molecular_formula>  (46) 
C31H55N5O7S2

>  <r_m_Molecular_weight>  (46) 
673.9413

>  <i_m_Number_of_heavy_atoms>  (46) 
45

>  <i_m_Number_of_atoms>  (46) 
100

>  <s_user_Group>  (46) 
BACE

>  <s_user_Preparation>  (46) 
reference

>  <s_user_Primary_PMID>  (46) 
16854060                                                     

>  <s_user_Primary_DOI>  (46) 
10.1021/JM060154A      

>  <s_user_Unique_SMILES>  (46) 
CCCCNC(=O)[C@H](C(C)C)NC(=O)[C@H](C)C[C@H](O)[C@@H](N1)CSC/C=C/CSC[C@@H](C(=O)N[C@@H](C)C1=O)NC(=O)OC(C)(C)C

>  <s_user_Source>  (46) 
PDB

>  <s_user_InChI1S_Key>  (46) 
InChIKey=YFVXRNZNJJXEKV-DYASFXQMSA-N

>  <s_user_Sample>  (46) 
TEST

>  <s_m_subgroup_title>  (46) 
208refs

>  <s_m_subgroupid>  (46) 
208refs

>  <b_m_subgroup_collapsed>  (46) 
0

$$$$
2F3F
     RDKit          3D

 34 35  0  0  1  0  0  0  0  0999 V2000
   29.8450    9.0120   18.6550 C   0  0  0  0  0  0  0  0  0  0  0  0
   29.3620    7.7690   19.4580 C   0  0  0  0  0  0  0  0  0  0  0  0
   28.4360   10.0720   18.0740 S   0  0  0  0  0  0  0  0  0  0  0  0
   28.7000    8.1460   20.7160 N   0  0  0  0  0  0  0  0  0  0  0  0
   29.6930    8.8200   21.5910 C   0  0  0  0  0  0  0  0  0  0  0  0
   30.1850   10.1310   20.9180 C   0  0  0  0  0  0  0  0  0  0  0  0
   30.8370    9.8110   19.5370 C   0  0  0  0  0  0  0  0  0  0  0  0
   28.6160    6.7610   18.6510 C   0  0  0  0  0  0  0  0  0  0  0  0
   29.0010    6.7150   17.3600 N   0  0  0  0  0  0  0  0  0  0  0  0
   28.4610    5.7200   16.4560 C   0  0  0  0  0  0  0  0  0  0  0  0
   29.4150    5.7380   15.3050 C   0  0  0  0  0  0  0  0  0  0  0  0
   30.7250    5.5380   15.6250 N   0  0  0  0  0  0  0  0  0  0  0  0
   31.7330    5.5930   14.5890 C   0  0  0  0  0  0  0  0  0  0  0  0
   32.9930    6.3810   15.0680 C   0  0  0  0  0  0  0  0  0  0  0  0
   32.4950    7.8800   15.9940 S   0  0  0  0  0  0  0  0  0  0  0  0
   31.8310    8.9710   14.6630 C   0  0  0  0  0  0  0  0  0  0  0  0
   31.2130   10.0830   15.4810 C   0  0  0  0  0  0  0  0  0  0  0  0
   29.9120   10.0580   15.7800 C   0  0  0  0  0  0  0  0  0  0  0  0
   29.2940   11.0740   16.7000 C   0  0  0  0  0  0  0  0  0  0  0  0
   32.1960    4.2100   14.0730 C   0  0  0  0  0  0  0  0  0  0  0  0
   32.9280    3.5000   15.0810 O   0  0  0  0  0  0  0  0  0  0  0  0
   31.0430    3.3210   13.5870 C   0  0  0  0  0  0  0  0  0  0  0  0
   31.6770    2.3250   12.5970 C   0  0  0  0  0  0  0  0  0  0  0  0
   30.7900    1.0840   12.4130 C   0  0  0  0  0  0  0  0  0  0  0  0
   31.8080    2.9790   11.2440 C   0  0  0  0  0  0  0  0  0  0  0  0
   30.8950    3.6790   10.8270 O   0  0  0  0  0  0  0  0  0  0  0  0
   32.9440    2.7540   10.5720 N   0  0  0  0  0  0  0  0  0  0  0  0
   33.1350    3.3500    9.2610 C   0  0  0  0  0  0  0  0  0  0  0  0
   34.3780    2.7180    8.6150 C   0  0  0  0  0  0  0  0  0  0  0  0
   34.4340    2.9740    7.0740 C   0  0  0  0  0  0  0  0  0  0  0  0
   34.7510    4.4300    6.7610 C   0  0  0  0  0  0  0  0  0  0  0  0
   29.0190    5.9260   14.1770 O   0  0  0  0  0  0  0  0  0  0  0  0
   26.9820    5.9990   16.1140 C   0  0  0  0  0  0  0  0  0  0  0  0
   27.7480    6.0530   19.1530 O   0  0  0  0  0  0  0  0  0  0  0  0
  1  2  1  0
  1  3  1  0
  1  7  1  0
  2  4  1  0
  2  8  1  0
  3 19  1  0
  4  5  1  0
  5  6  1  0
  6  7  1  0
  8  9  1  0
  8 34  2  0
  9 10  1  0
 10 11  1  0
 10 33  1  0
 11 12  1  0
 11 32  2  0
 12 13  1  0
 13 14  1  0
 13 20  1  0
 14 15  1  0
 15 16  1  0
 16 17  1  0
 17 18  2  0
 18 19  1  0
 20 21  1  0
 20 22  1  0
 22 23  1  0
 23 24  1  0
 23 25  1  0
 25 26  2  0
 25 27  1  0
 27 28  1  0
 28 29  1  0
 29 30  1  0
 30 31  1  0
M  END
>  <s_m_entry_id>  (47) 
1098

>  <s_m_entry_name>  (47) 
2f3f.1

>  <s_pdb_PDB_TITLE>  (47) 
CRYSTAL STRUCTURE OF THE BACE COMPLEX WITH BDF488, A MACROCYCLIC INHIBITOR

>  <s_m_Source_Path>  (47) 
/nfs/zone2/sindhikara/master/src/validation_scripts/tests/prime/macrocycle/BMS208

>  <s_m_Source_File>  (47) 
208refs.maegz

>  <i_m_Source_File_Index>  (47) 
188

>  <s_pdb_PDB_ID>  (47) 
2F3F

>  <r_pdb_PDB_R>  (47) 
0.19

>  <r_pdb_PDB_Rfree>  (47) 
0.22

>  <r_pdb_PDB_RESOLUTION>  (47) 
2.3

>  <s_m_Molecular_formula>  (47) 
C24H42N4O4S2

>  <r_m_Molecular_weight>  (47) 
514.75474

>  <i_m_Number_of_heavy_atoms>  (47) 
34

>  <i_m_Number_of_atoms>  (47) 
76

>  <s_user_Group>  (47) 
BACE

>  <s_user_Preparation>  (47) 
reference

>  <s_user_Primary_PMID>  (47) 
16854060                                                     

>  <s_user_Primary_DOI>  (47) 
10.1021/JM060154A      

>  <s_user_Unique_SMILES>  (47) 
CCCCNC(=O)[C@H](C)C[C@H](O)[C@@H](NC(=O)[C@H](C)NC1=O)CSC\C=C\CS[C@H]([C@H]12)CCCN2

>  <s_user_Source>  (47) 
PDB

>  <s_user_InChI1S_Key>  (47) 
InChIKey=FIWCVIADXWJIGF-NFXSCPKSSA-N

>  <s_user_Sample>  (47) 
TRAIN

>  <s_m_subgroup_title>  (47) 
208refs

>  <s_m_subgroupid>  (47) 
208refs

>  <b_m_subgroup_collapsed>  (47) 
0

$$$$
2GPL
     RDKit          3D

 48 51  0  0  1  0  0  0  0  0999 V2000
   28.2108   57.9228   50.5865 C   0  0  0  0  0  0  0  0  0  0  0  0
   27.1388   57.0258   50.2855 C   0  0  0  0  0  0  0  0  0  0  0  0
   25.8358   57.0488   51.0935 C   0  0  0  0  0  0  0  0  0  0  0  0
   25.7318   56.0298   52.1645 O   0  0  0  0  0  0  0  0  0  0  0  0
   26.4208   56.2998   53.3485 C   0  0  0  0  0  0  0  0  0  0  0  0
   26.1438   55.3308   54.3565 N   0  0  0  0  0  0  0  0  0  0  0  0
   26.6488   55.3808   55.7675 C   0  0  0  0  0  0  0  0  0  0  0  0
   26.0048   56.5618   56.4505 C   0  0  0  0  0  0  0  0  0  0  0  0
   26.5488   57.6298   56.3145 O   0  0  0  0  0  0  0  0  0  0  0  0
   24.8518   56.5818   57.1775 N   0  0  0  0  0  0  0  0  0  0  0  0
   23.9788   55.5048   57.6675 C   0  0  0  0  0  0  0  0  0  0  0  0
   23.2858   54.3758   56.8695 C   0  0  0  0  0  0  0  0  0  0  0  0
   21.9338   54.7118   56.2785 C   0  0  0  0  0  0  0  0  0  0  0  0
   21.7818   55.7778   55.5035 N   0  0  0  0  0  0  0  0  0  0  0  0
   20.9868   53.9548   56.5325 O   0  0  0  0  0  0  0  0  0  0  0  0
   24.2118   55.1898   59.1365 C   0  0  0  0  0  0  0  0  0  0  0  0
   25.1048   54.4018   59.3925 O   0  0  0  0  0  0  0  0  0  0  0  0
   23.6058   56.0138   60.0435 N   0  0  0  0  0  0  0  0  0  0  0  0
   23.9038   55.9908   61.4755 C   0  0  0  0  0  0  0  0  0  0  0  0
   22.6008   55.7318   62.1555 C   0  0  0  0  0  0  0  0  0  0  0  0
   21.6088   56.3858   61.8525 O   0  0  0  0  0  0  0  0  0  0  0  0
   22.6448   54.7288   63.0645 N   0  0  0  0  0  0  0  0  0  0  0  0
   21.5578   54.2248   63.8715 C   0  0  0  0  0  0  0  0  0  0  0  0
   22.1808   53.0788   64.6995 C   0  0  0  0  0  0  0  0  0  0  0  0
   21.1668   52.4208   65.6255 C   0  0  0  0  0  0  0  0  0  0  0  0
   24.5798   57.2498   62.1085 C   0  0  0  0  0  0  0  0  0  0  0  0
   25.9738   57.4848   61.5105 C   0  0  0  0  0  0  0  0  0  0  0  0
   27.1288   56.8608   62.0755 C   0  0  0  0  0  0  0  0  0  0  0  0
   28.4148   57.0488   61.5165 C   0  0  0  0  0  0  0  0  0  0  0  0
   28.5798   57.8538   60.3705 C   0  0  0  0  0  0  0  0  0  0  0  0
   29.8408   57.8348   59.6805 O   0  0  0  0  0  0  0  0  0  0  0  0
   29.9588   56.6458   58.8405 C   0  0  0  0  0  0  0  0  0  0  0  0
   29.0578   56.5138   57.7465 C   0  0  0  0  0  0  0  0  0  0  0  0
   29.1948   55.5118   56.7585 C   0  0  0  0  0  0  0  0  0  0  0  0
   30.2858   54.6118   56.8625 C   0  0  0  0  0  0  0  0  0  0  0  0
   31.2148   54.6988   57.9325 C   0  0  0  0  0  0  0  0  0  0  0  0
   31.0858   55.7078   58.9455 C   0  0  0  0  0  0  0  0  0  0  0  0
   32.0128   55.7508   59.9735 N   0  0  0  0  0  0  0  0  0  0  0  0
   32.4518   54.6648   60.3935 O   0  0  0  0  0  0  0  0  0  0  0  0
   32.3418   56.8388   60.4435 O   0  0  0  0  0  0  0  0  0  0  0  0
   28.2168   55.3978   55.5635 C   0  0  0  0  0  0  0  0  0  0  0  0
   27.4238   58.5088   59.7935 C   0  0  0  0  0  0  0  0  0  0  0  0
   26.1268   58.3168   60.3675 C   0  0  0  0  0  0  0  0  0  0  0  0
   27.1078   57.3178   53.5075 O   0  0  0  0  0  0  0  0  0  0  0  0
   27.2758   56.0878   49.2295 C   0  0  0  0  0  0  0  0  0  0  0  0
   28.4698   56.0488   48.4765 C   0  0  0  0  0  0  0  0  0  0  0  0
   29.5378   56.9398   48.7805 C   0  0  0  0  0  0  0  0  0  0  0  0
   29.4068   57.8818   49.8315 C   0  0  0  0  0  0  0  0  0  0  0  0
  1  2  2  0
  1 48  1  0
  2  3  1  0
  2 45  1  0
  3  4  1  0
  4  5  1  0
  5  6  1  0
  5 44  2  0
  6  7  1  0
  7  8  1  0
  7 41  1  0
  8  9  2  0
  8 10  1  0
 10 11  1  0
 11 12  1  0
 11 16  1  0
 12 13  1  0
 13 14  1  0
 13 15  2  0
 16 17  2  0
 16 18  1  0
 18 19  1  0
 19 20  1  0
 19 26  1  0
 20 21  2  0
 20 22  1  0
 22 23  1  0
 23 24  1  0
 24 25  1  0
 26 27  1  0
 27 28  2  0
 27 43  1  0
 28 29  1  0
 29 30  2  0
 30 31  1  0
 30 42  1  0
 31 32  1  0
 32 33  1  0
 32 37  2  0
 33 34  2  0
 34 35  1  0
 34 41  1  0
 35 36  2  0
 36 37  1  0
 37 38  1  0
 38 39  2  0
 38 40  1  0
 42 43  2  0
 45 46  2  0
 46 47  1  0
 47 48  2  0
M  CHG  2  38   1  40  -1
M  END
>  <s_m_entry_id>  (48) 
1099

>  <s_m_entry_name>  (48) 
2gpl.1

>  <s_pdb_PDB_TITLE>  (48) 
TMC-95 BASED BIPHENYL-ETHER MACROCYCLES: SPECIFIC PROTEASOME INHIBITORS

>  <s_m_Source_Path>  (48) 
/nfs/zone2/sindhikara/master/src/validation_scripts/tests/prime/macrocycle/BMS208

>  <s_m_Source_File>  (48) 
208refs.maegz

>  <i_m_Source_File_Index>  (48) 
189

>  <s_pdb_PDB_ID>  (48) 
2GPL

>  <r_pdb_PDB_R>  (48) 
0.217

>  <r_pdb_PDB_Rfree>  (48) 
0.241

>  <r_pdb_PDB_RESOLUTION>  (48) 
2.81

>  <s_m_Molecular_formula>  (48) 
C33H36N6O9

>  <r_m_Molecular_weight>  (48) 
660.68967

>  <i_m_Number_of_heavy_atoms>  (48) 
48

>  <i_m_Number_of_atoms>  (48) 
84

>  <s_user_Group>  (48) 
Example PDB

>  <s_user_Preparation>  (48) 
reference

>  <s_user_Primary_PMID>  (48) 
16793518                                                     

>  <s_user_Primary_DOI>  (48) 
10.1016/J.CHEMBIOL.2006.04.005    

>  <s_user_Unique_SMILES>  (48) 
c1cc(O2)ccc1C[C@@H](C(=O)NCCC)NC(=O)[C@H](CC(=O)N)NC(=O)[C@H](Cc(c3)ccc(c23)[N+]([O-])=O)NC(=O)OCc4ccccc4

>  <s_user_Source>  (48) 
PDB

>  <s_user_InChI1S_Key>  (48) 
InChIKey=CJHDBEMQNLQIBH-GSDHBNRESA-N

>  <s_user_Sample>  (48) 
TRAIN

>  <s_user_Microstate_Comment>  (48) 
cis-amide

>  <s_m_subgroup_title>  (48) 
208refs

>  <s_m_subgroupid>  (48) 
208refs

>  <b_m_subgroup_collapsed>  (48) 
0

$$$$
2IYA
     RDKit          3D

 48 51  0  0  1  0  0  0  0  0999 V2000
   42.6870   53.6660   28.6380 C   0  0  0  0  0  0  0  0  0  0  0  0
   43.6820   53.4270   29.7960 C   0  0  0  0  0  0  0  0  0  0  0  0
   43.2380   53.5750   31.2940 C   0  0  0  0  0  0  0  0  0  0  0  0
   44.4320   53.2270   32.2240 C   0  0  0  0  0  0  0  0  0  0  0  0
   44.7330   51.8460   32.0230 O   0  0  0  0  0  0  0  0  0  0  0  0
   45.9600   49.9730   30.8840 C   0  0  0  0  0  0  0  0  0  0  0  0
   46.0900   49.9060   29.3270 C   0  0  0  0  0  0  0  0  0  0  0  0
   45.3040   48.7320   28.6640 C   0  0  0  0  0  0  0  0  0  0  0  0
   45.2460   48.8240   27.0970 C   0  0  0  0  0  0  0  0  0  0  0  0
   44.6660   50.1550   26.5240 C   0  0  0  0  0  0  0  0  0  0  0  0
   43.1490   50.1490   26.8150 C   0  0  0  0  0  0  0  0  0  0  0  0
   42.3820   51.4290   27.1820 C   0  0  0  0  0  0  0  0  0  0  0  0
   43.0950   52.7530   27.4730 C   0  0  0  0  0  0  0  0  0  0  0  0
   44.1680   53.1680   26.6670 O   0  0  0  0  0  0  0  0  0  0  0  0
   45.8580   51.4510   31.2920 C   0  0  0  0  0  0  0  0  0  0  0  0
   46.8060   52.3860   30.8540 O   0  0  0  0  0  0  0  0  0  0  0  0
   47.4520   49.8680   28.9350 O   0  0  0  0  0  0  0  0  0  0  0  0
   44.3930   47.7850   26.6280 O   0  0  0  0  0  0  0  0  0  0  0  0
   42.4870   55.1200   28.1760 C   0  0  0  0  0  0  0  0  0  0  0  0
   41.1300   51.6270   26.3130 C   0  0  0  0  0  0  0  0  0  0  0  0
   42.0260   52.6980   31.6640 C   0  0  0  0  0  0  0  0  0  0  0  0
   44.8970   54.1090   29.5320 O   0  0  0  0  0  0  0  0  0  0  0  0
   44.1740   53.4520   33.7230 C   0  0  0  0  0  0  0  0  0  0  0  0
   47.0900   49.3170   31.6980 C   0  0  0  0  0  0  0  0  0  0  0  0
   44.9140   50.3590   25.0140 C   0  0  0  0  0  0  0  0  0  0  0  0
   45.0890   46.7780   25.8990 C   0  0  0  0  0  0  0  0  0  0  0  0
   44.1510   45.5740   25.8040 C   0  0  0  0  0  0  0  0  0  0  0  0
   44.7330   44.5040   24.8530 C   0  0  0  0  0  0  0  0  0  0  0  0
   45.1760   45.1130   23.5100 C   0  0  0  0  0  0  0  0  0  0  0  0
   46.1330   46.2800   23.7900 C   0  0  0  0  0  0  0  0  0  0  0  0
   45.4700   47.2390   24.6130 O   0  0  0  0  0  0  0  0  0  0  0  0
   43.8410   43.3430   24.7200 N   0  0  0  0  0  0  0  0  0  0  0  0
   46.5430   47.0300   22.5160 C   0  0  0  0  0  0  0  0  0  0  0  0
   43.9330   44.9960   27.0810 O   0  0  0  0  0  0  0  0  0  0  0  0
   44.4730   42.2100   24.0110 C   0  0  0  0  0  0  0  0  0  0  0  0
   47.9700   50.8980   28.1100 C   0  0  0  0  0  0  0  0  0  0  0  0
   49.3420   51.3170   28.6930 C   0  0  0  0  0  0  0  0  0  0  0  0
   50.4170   50.2110   28.4950 C   0  0  0  0  0  0  0  0  0  0  0  0
   50.4260   49.7420   27.0250 C   0  0  0  0  0  0  0  0  0  0  0  0
   48.9900   49.4070   26.5510 C   0  0  0  0  0  0  0  0  0  0  0  0
   48.0750   50.4880   26.7490 O   0  0  0  0  0  0  0  0  0  0  0  0
   51.7300   50.6660   28.8680 O   0  0  0  0  0  0  0  0  0  0  0  0
   51.2020   48.5520   26.8960 O   0  0  0  0  0  0  0  0  0  0  0  0
   41.0560   51.2950   27.6760 O   0  0  0  0  0  0  0  0  0  0  0  0
   51.8720   50.7870   30.2860 C   0  0  0  0  0  0  0  0  0  0  0  0
   42.4400   43.5830   24.3340 C   0  0  0  0  0  0  0  0  0  0  0  0
   48.9150   49.0360   25.0570 C   0  0  0  0  0  0  0  0  0  0  0  0
   45.7910   47.3630   29.1910 C   0  0  0  0  0  0  0  0  0  0  0  0
  1  2  1  0
  1 13  1  0
  1 19  1  0
  2  3  1  0
  2 22  1  0
  3  4  1  0
  3 21  1  0
  4  5  1  0
  4 23  1  0
  5 15  1  0
  6  7  1  0
  6 15  1  0
  6 24  1  0
  7  8  1  0
  7 17  1  0
  8  9  1  0
  8 48  1  0
  9 10  1  0
  9 18  1  0
 10 11  1  0
 10 25  1  0
 11 12  1  0
 12 13  1  0
 12 20  1  0
 12 44  1  0
 13 14  2  0
 15 16  2  0
 17 36  1  0
 18 26  1  0
 20 44  1  0
 26 27  1  0
 26 31  1  0
 27 28  1  0
 27 34  1  0
 28 29  1  0
 28 32  1  0
 29 30  1  0
 30 31  1  0
 30 33  1  0
 32 35  1  0
 32 46  1  0
 36 37  1  0
 36 41  1  0
 37 38  1  0
 38 39  1  0
 38 42  1  0
 39 40  1  0
 39 43  1  0
 40 41  1  0
 40 47  1  0
 42 45  1  0
M  CHG  1  32   1
M  END
>  <s_m_entry_id>  (49) 
1100

>  <s_m_entry_name>  (49) 
2iya.1

>  <s_pdb_PDB_TITLE>  (49) 
THE CRYSTAL STRUCTURE OF MACROLIDE GLYCOSYLTRANSFERASES: A BLUEPRINT FOR ANTIBIOTIC ENGINEERING

>  <s_m_Source_Path>  (49) 
/nfs/zone2/sindhikara/master/src/validation_scripts/tests/prime/macrocycle/BMS208

>  <s_m_Source_File>  (49) 
208refs.maegz

>  <i_m_Source_File_Index>  (49) 
190

>  <s_pdb_PDB_ID>  (49) 
2IYA

>  <r_pdb_PDB_R>  (49) 
0.167

>  <r_pdb_PDB_Rfree>  (49) 
0.198

>  <r_pdb_PDB_RESOLUTION>  (49) 
1.7

>  <s_m_Molecular_formula>  (49) 
C35H62N1O12

>  <r_m_Molecular_weight>  (49) 
688.88389

>  <i_m_Number_of_heavy_atoms>  (49) 
48

>  <i_m_Number_of_atoms>  (49) 
110

>  <s_user_Group>  (49) 
Example PDB

>  <s_user_Preparation>  (49) 
reference

>  <s_user_Primary_PMID>  (49) 
17376874                                                     

>  <s_user_Primary_DOI>  (49) 
10.1073/PNAS.0607897104     

>  <s_user_Unique_SMILES>  (49) 
C[C@@H]1C[C@H]([NH+](C)C)[C@@H](O)[C@@H](O1)O[C@@H]([C@@H](C)C2)[C@@H](C)[C@H](O[C@H](O3)C[C@H](OC)[C@@H](O)[C@@H]3C)[C@@H](C)C(=O)O[C@H](C)[C@H](C)[C@H](O)[C@@H](C)C(=O)[C@@]24CO4

>  <s_user_Source>  (49) 
PDB

>  <s_user_InChI1S_Key>  (49) 
InChIKey=RZPAKFUAFGMUPI-KGIGTXTPSA-N

>  <s_user_Sample>  (49) 
TRAIN

>  <s_m_subgroup_title>  (49) 
208refs

>  <s_m_subgroupid>  (49) 
208refs

>  <b_m_subgroup_collapsed>  (49) 
0

$$$$
2IYF
     RDKit          3D

 51 53  0  0  1  0  0  0  0  0999 V2000
   14.4878   57.9931   46.6454 C   0  0  0  0  0  0  0  0  0  0  0  0
   15.9688   57.6441   46.8334 C   0  0  0  0  0  0  0  0  0  0  0  0
   16.6168   56.6531   45.8214 C   0  0  0  0  0  0  0  0  0  0  0  0
   18.1508   56.7441   45.9154 C   0  0  0  0  0  0  0  0  0  0  0  0
   18.5258   57.9541   45.2404 O   0  0  0  0  0  0  0  0  0  0  0  0
   19.4468   60.1731   45.1444 C   0  0  0  0  0  0  0  0  0  0  0  0
   18.7388   61.3641   45.8064 C   0  0  0  0  0  0  0  0  0  0  0  0
   17.3508   61.6251   45.1974 C   0  0  0  0  0  0  0  0  0  0  0  0
   16.5168   62.5591   46.1394 C   0  0  0  0  0  0  0  0  0  0  0  0
   15.5288   61.7841   47.0304 C   0  0  0  0  0  0  0  0  0  0  0  0
   14.4248   61.1571   46.1564 C   0  0  0  0  0  0  0  0  0  0  0  0
   13.4128   60.3451   46.9864 C   0  0  0  0  0  0  0  0  0  0  0  0
   13.9988   59.0871   47.5814 C   0  0  0  0  0  0  0  0  0  0  0  0
   14.0318   58.9041   48.8024 O   0  0  0  0  0  0  0  0  0  0  0  0
   19.2168   58.9581   45.9664 C   0  0  0  0  0  0  0  0  0  0  0  0
   19.5488   58.8081   47.1334 O   0  0  0  0  0  0  0  0  0  0  0  0
   19.5458   62.5481   45.7194 O   0  0  0  0  0  0  0  0  0  0  0  0
   15.7978   63.4401   45.3174 O   0  0  0  0  0  0  0  0  0  0  0  0
   13.5348   56.8191   46.8724 C   0  0  0  0  0  0  0  0  0  0  0  0
   12.1868   60.0001   46.1414 C   0  0  0  0  0  0  0  0  0  0  0  0
   16.1328   56.9181   44.4004 C   0  0  0  0  0  0  0  0  0  0  0  0
   16.1428   57.1801   48.1864 O   0  0  0  0  0  0  0  0  0  0  0  0
   16.1448   55.3351   46.1044 O   0  0  0  0  0  0  0  0  0  0  0  0
   18.8898   55.6151   45.1924 C   0  0  0  0  0  0  0  0  0  0  0  0
   20.9778   60.2361   44.9444 C   0  0  0  0  0  0  0  0  0  0  0  0
   14.9938   62.6351   48.1954 C   0  0  0  0  0  0  0  0  0  0  0  0
   16.2418   60.7051   47.6034 O   0  0  0  0  0  0  0  0  0  0  0  0
   16.1438   64.8271   45.4334 C   0  0  0  0  0  0  0  0  0  0  0  0
   15.4918   65.6131   44.2874 C   0  0  0  0  0  0  0  0  0  0  0  0
   15.6908   67.1131   44.5124 C   0  0  0  0  0  0  0  0  0  0  0  0
   15.2468   67.5151   45.9384 C   0  0  0  0  0  0  0  0  0  0  0  0
   15.9358   66.6471   47.0034 C   0  0  0  0  0  0  0  0  0  0  0  0
   15.6788   65.2671   46.7024 O   0  0  0  0  0  0  0  0  0  0  0  0
   14.8508   67.9281   43.6004 N   0  0  0  0  0  0  0  0  0  0  0  0
   15.3298   66.9001   48.3734 C   0  0  0  0  0  0  0  0  0  0  0  0
   16.1298   65.2811   43.0494 O   0  0  0  0  0  0  0  0  0  0  0  0
   15.3118   69.2851   43.3214 C   0  0  0  0  0  0  0  0  0  0  0  0
   20.4218   62.7491   46.8514 C   0  0  0  0  0  0  0  0  0  0  0  0
   21.5998   63.6381   46.4274 C   0  0  0  0  0  0  0  0  0  0  0  0
   21.2318   65.1271   46.2964 C   0  0  0  0  0  0  0  0  0  0  0  0
   20.5848   65.6061   47.6074 C   0  0  0  0  0  0  0  0  0  0  0  0
   19.3938   64.6971   47.9194 C   0  0  0  0  0  0  0  0  0  0  0  0
   19.7408   63.2981   47.9844 O   0  0  0  0  0  0  0  0  0  0  0  0
   20.2768   65.3421   45.2454 O   0  0  0  0  0  0  0  0  0  0  0  0
   20.0828   66.9381   47.4014 O   0  0  0  0  0  0  0  0  0  0  0  0
   20.4968   65.1101   43.8324 C   0  0  0  0  0  0  0  0  0  0  0  0
   13.5258   67.5091   43.1584 C   0  0  0  0  0  0  0  0  0  0  0  0
   18.7818   65.0151   49.2904 C   0  0  0  0  0  0  0  0  0  0  0  0
   20.3678   55.6391   45.5244 C   0  0  0  0  0  0  0  0  0  0  0  0
   17.5268   62.1841   43.7774 C   0  0  0  0  0  0  0  0  0  0  0  0
   22.4768   65.9931   46.0274 C   0  0  0  0  0  0  0  0  0  0  0  0
  1  2  1  0
  1 13  1  0
  1 19  1  0
  2  3  1  0
  2 22  1  0
  3  4  1  0
  3 21  1  0
  3 23  1  0
  4  5  1  0
  4 24  1  0
  5 15  1  0
  6  7  1  0
  6 15  1  0
  6 25  1  0
  7  8  1  0
  7 17  1  0
  8  9  1  0
  8 50  1  0
  9 10  1  0
  9 18  1  0
 10 11  1  0
 10 26  1  0
 10 27  1  0
 11 12  1  0
 12 13  1  0
 12 20  1  0
 13 14  2  0
 15 16  2  0
 17 38  1  0
 18 28  1  0
 24 49  1  0
 28 29  1  0
 28 33  1  0
 29 30  1  0
 29 36  1  0
 30 31  1  0
 30 34  1  0
 31 32  1  0
 32 33  1  0
 32 35  1  0
 34 37  1  0
 34 47  1  0
 38 39  1  0
 38 43  1  0
 39 40  1  0
 40 41  1  0
 40 44  1  0
 40 51  1  0
 41 42  1  0
 41 45  1  0
 42 43  1  0
 42 48  1  0
 44 46  1  0
M  CHG  1  34   1
M  END
>  <s_m_entry_id>  (50) 
1101

>  <s_m_entry_name>  (50) 
2iyf.1

>  <s_pdb_PDB_TITLE>  (50) 
THE CRYSTAL STRUCTURE OF MACROLIDE GLYCOSYLTRANSFERASES: A BLUEPRINT FOR ANTIBIOTIC ENGINEERING

>  <s_m_Source_Path>  (50) 
/nfs/zone2/sindhikara/master/src/validation_scripts/tests/prime/macrocycle/BMS208

>  <s_m_Source_File>  (50) 
208refs.maegz

>  <i_m_Source_File_Index>  (50) 
191

>  <s_pdb_PDB_ID>  (50) 
2IYF

>  <r_pdb_PDB_R>  (50) 
0.2

>  <r_pdb_PDB_Rfree>  (50) 
0.232

>  <r_pdb_PDB_RESOLUTION>  (50) 
1.7

>  <s_m_Molecular_formula>  (50) 
C37H68N1O13

>  <r_m_Molecular_weight>  (50) 
734.95341

>  <i_m_Number_of_heavy_atoms>  (50) 
51

>  <i_m_Number_of_atoms>  (50) 
119

>  <s_user_Group>  (50) 
Example PDB

>  <s_user_Preparation>  (50) 
reference

>  <s_user_Primary_PMID>  (50) 
17376874                                                     

>  <s_user_Primary_DOI>  (50) 
10.1073/PNAS.0607897104     

>  <s_user_Unique_SMILES>  (50) 
CO[C@@]1(C)[C@@H](O)[C@H](C)O[C@H](C1)O[C@H]([C@@H](C)C(=O)O[C@H](CC)[C@@]2(C)O)[C@H](C)[C@H]([C@](C)(O)C[C@@H](C)C(=O)[C@H](C)[C@H]2O)O[C@H](O3)[C@H](O)[C@@H]([NH+](C)C)C[C@H]3C

>  <s_user_Source>  (50) 
PDB

>  <s_user_InChI1S_Key>  (50) 
InChIKey=ULGZDMOVFRHVEP-RWJQBGPGSA-N

>  <s_user_Sample>  (50) 
TRAIN

>  <s_m_subgroup_title>  (50) 
208refs

>  <s_m_subgroupid>  (50) 
208refs

>  <b_m_subgroup_collapsed>  (50) 
0

$$$$
2OTJ
     RDKit          3D

 42 43  0  0  1  0  0  0  0  0999 V2000
   25.4220   55.1503   57.9363 O   0  0  0  0  0  0  0  0  0  0  0  0
   26.6220   53.0923   57.6853 O   0  0  0  0  0  0  0  0  0  0  0  0
   28.7420   54.3563   56.7363 O   0  0  0  0  0  0  0  0  0  0  0  0
   28.2060   55.1543   59.6353 O   0  0  0  0  0  0  0  0  0  0  0  0
   28.5880   58.5883   57.0773 O   0  0  0  0  0  0  0  0  0  0  0  0
   30.7490   58.5083   53.5943 O   0  0  0  0  0  0  0  0  0  0  0  0
   24.2250   58.1873   52.7453 O   0  0  0  0  0  0  0  0  0  0  0  0
   22.6640   55.6483   56.1743 O   0  0  0  0  0  0  0  0  0  0  0  0
   20.9280   56.4733   59.1233 O   0  0  0  0  0  0  0  0  0  0  0  0
   26.5210   54.3793   57.6523 C   0  0  0  0  0  0  0  0  0  0  0  0
   27.7310   55.2453   57.2363 C   0  0  0  0  0  0  0  0  0  0  0  0
   28.2590   55.9983   58.4453 C   0  0  0  0  0  0  0  0  0  0  0  0
   29.6550   56.6943   58.1603 C   0  0  0  0  0  0  0  0  0  0  0  0
   29.4970   57.7103   57.0393 C   0  0  0  0  0  0  0  0  0  0  0  0
   30.4900   57.6753   55.8863 C   0  0  0  0  0  0  0  0  0  0  0  0
   29.8040   58.3933   54.6793 C   0  0  0  0  0  0  0  0  0  0  0  0
   28.6380   57.5273   54.1623 C   0  0  0  0  0  0  0  0  0  0  0  0
   27.6070   58.0903   53.4063 C   0  0  0  0  0  0  0  0  0  0  0  0
   26.4690   57.2503   52.7313 C   0  0  0  0  0  0  0  0  0  0  0  0
   25.1010   57.5373   53.3833 C   0  0  0  0  0  0  0  0  0  0  0  0
   24.8320   57.1183   54.8303 C   0  0  0  0  0  0  0  0  0  0  0  0
   23.9830   58.1903   55.5883 C   0  0  0  0  0  0  0  0  0  0  0  0
   23.5440   57.7803   57.0293 C   0  0  0  0  0  0  0  0  0  0  0  0
   23.0500   56.3203   57.1373 C   0  0  0  0  0  0  0  0  0  0  0  0
   23.1200   55.6843   58.4873 C   0  0  0  0  0  0  0  0  0  0  0  0
   21.7160   55.2813   58.9923 C   0  0  0  0  0  0  0  0  0  0  0  0
   21.6810   54.6333   60.4043 C   0  0  0  0  0  0  0  0  0  0  0  0
   21.8460   53.0993   60.6213 C   0  0  0  0  0  0  0  0  0  0  0  0
   22.3880   52.5533   61.9483 C   0  0  0  0  0  0  0  0  0  0  0  0
   23.5810   53.4253   62.3833 C   0  0  0  0  0  0  0  0  0  0  0  0
   24.8270   53.0733   62.7953 C   0  0  0  0  0  0  0  0  0  0  0  0
   25.3860   51.6703   62.9593 C   0  0  0  0  0  0  0  0  0  0  0  0
   30.2300   57.4463   59.3903 C   0  0  0  0  0  0  0  0  0  0  0  0
   31.7980   58.3983   56.3203 C   0  0  0  0  0  0  0  0  0  0  0  0
   28.6510   56.0103   54.4463 C   0  0  0  0  0  0  0  0  0  0  0  0
   26.3660   57.4833   51.1843 C   0  0  0  0  0  0  0  0  0  0  0  0
   22.4790   58.7163   57.6293 C   0  0  0  0  0  0  0  0  0  0  0  0
   24.1630   54.5393   58.4043 C   0  0  0  0  0  0  0  0  0  0  0  0
   21.9290   55.6703   61.5223 C   0  0  0  0  0  0  0  0  0  0  0  0
   22.7890   51.0693   61.8213 C   0  0  0  0  0  0  0  0  0  0  0  0
   28.8840   53.8603   59.5153 C   0  0  0  0  0  0  0  0  0  0  0  0
   20.5640   53.7353   60.6483 O   0  0  0  0  0  0  0  0  0  0  0  0
  1 10  1  0
  1 38  1  0
  2 10  2  0
  3 11  1  0
  4 12  1  0
  4 41  1  0
  5 14  2  0
  6 16  1  0
  7 20  2  0
  8 24  2  0
  9 26  1  0
 10 11  1  0
 11 12  1  0
 12 13  1  0
 13 14  1  0
 13 33  1  0
 14 15  1  0
 15 16  1  0
 15 34  1  0
 16 17  1  0
 17 18  2  0
 17 35  1  0
 18 19  1  0
 19 20  1  0
 19 36  1  0
 20 21  1  0
 21 22  1  0
 22 23  1  0
 23 24  1  0
 23 37  1  0
 24 25  1  0
 25 26  1  0
 25 38  1  0
 26 27  1  0
 27 28  1  0
 27 39  1  0
 27 42  1  0
 28 29  1  0
 28 42  1  0
 29 30  1  0
 29 40  1  0
 30 31  2  0
 31 32  1  0
M  END
>  <s_m_entry_id>  (51) 
1102

>  <s_m_entry_name>  (51) 
2otj.1

>  <s_pdb_PDB_TITLE>  (51) 
13-DEOXYTEDANOLIDE BOUND TO THE LARGE SUBUNIT OF HALOARCULA MARISMORTUI

>  <s_m_Source_Path>  (51) 
/nfs/zone2/sindhikara/master/src/validation_scripts/tests/prime/macrocycle/BMS208

>  <s_m_Source_File>  (51) 
208refs.maegz

>  <i_m_Source_File_Index>  (51) 
192

>  <s_pdb_PDB_ID>  (51) 
2OTJ

>  <r_pdb_PDB_R>  (51) 
0.193

>  <r_pdb_PDB_Rfree>  (51) 
0.238

>  <r_pdb_PDB_RESOLUTION>  (51) 
2.9

>  <s_m_Molecular_formula>  (51) 
C32H50O10

>  <r_m_Molecular_weight>  (51) 
594.7493

>  <i_m_Number_of_heavy_atoms>  (51) 
42

>  <i_m_Number_of_atoms>  (51) 
92

>  <s_user_Group>  (51) 
Example PDB

>  <s_user_Preparation>  (51) 
reference

>  <s_user_Primary_PMID>  (51) 
17321546                                                     

>  <s_user_Primary_DOI>  (51) 
10.1016/J.JMB.2007.01.081     

>  <s_user_Unique_SMILES>  (51) 
C/C1=C\[C@H](C)C(=O)CC[C@@H](C)C(=O)[C@@H]([C@H](O)[C@]2(C)[C@H](O2)[C@@H](C)/C=C\C)COC(=O)[C@H](O)[C@@H](OC)[C@H](C)C(=O)[C@H](C)[C@H]1O

>  <s_user_Source>  (51) 
PDB

>  <s_user_InChI1S_Key>  (51) 
InChIKey=YTOSLGBJMGPGPA-AYJAMTIUSA-N

>  <s_user_Sample>  (51) 
TRAIN

>  <s_user_Name>  (51) 
13-deoxytedanolide

>  <s_m_subgroup_title>  (51) 
208refs

>  <s_m_subgroupid>  (51) 
208refs

>  <b_m_subgroup_collapsed>  (51) 
0

$$$$
2PH8
     RDKit          3D

 32 34  0  0  1  0  0  0  0  0999 V2000
   28.6480   41.9880    0.6210 C   0  0  0  0  0  0  0  0  0  0  0  0
   29.8060   42.9190    0.7930 C   0  0  0  0  0  0  0  0  0  0  0  0
   33.3860   41.3570   -0.4010 C   0  0  0  0  0  0  0  0  0  0  0  0
   32.9880   39.9990    0.0830 C   0  0  0  0  0  0  0  0  0  0  0  0
   29.6800   39.8810    1.5750 O   0  0  0  0  0  0  0  0  0  0  0  0
   28.7290   40.4780    0.6530 C   0  0  0  0  0  0  0  0  0  0  0  0
   32.9350   39.7370    1.3860 C   0  0  0  0  0  0  0  0  0  0  0  0
   32.5530   38.3690    1.8910 C   0  0  0  0  0  0  0  0  0  0  0  0
   31.1140   38.1670    2.3560 C   0  0  0  0  0  0  0  0  0  0  0  0
   33.6880   42.3190    0.4660 C   0  0  0  0  0  0  0  0  0  0  0  0
   33.6230   42.0430    1.9360 C   0  0  0  0  0  0  0  0  0  0  0  0
   33.2740   40.8310    2.3430 C   0  0  0  0  0  0  0  0  0  0  0  0
   31.0910   45.6780    2.2900 C   0  0  0  0  0  0  0  0  0  0  0  0
   31.8070   44.6160    3.1390 C   0  0  0  0  0  0  0  0  0  0  0  0
   33.2830   44.4680    2.7270 C   0  0  0  0  0  0  0  0  0  0  0  0
   33.9680   43.1170    2.9620 C   0  0  0  0  0  0  0  0  0  0  0  0
   29.6050   44.2420    0.7230 C   0  0  0  0  0  0  0  0  0  0  0  0
   30.7470   45.2320    0.8780 C   0  0  0  0  0  0  0  0  0  0  0  0
   28.3820   44.7920    0.4910 N   0  0  0  0  0  0  0  0  0  0  0  0
   27.4610   42.5320    0.3930 C   0  0  0  0  0  0  0  0  0  0  0  0
   27.3630   44.0120    0.3530 C   0  0  0  0  0  0  0  0  0  0  0  0
   26.1320   44.5290    0.0920 N   0  0  0  0  0  0  0  0  0  0  0  0
   25.4760   45.6950    1.1270 S   0  0  0  0  0  0  0  0  0  0  0  0
   25.9950   47.2230    0.5280 C   0  0  0  0  0  0  0  0  0  0  0  0
   23.8160   45.6250    0.9680 O   0  0  0  0  0  0  0  0  0  0  0  0
   26.1120   45.5140    2.6530 O   0  0  0  0  0  0  0  0  0  0  0  0
   25.6970   44.5070   -1.3130 C   0  0  0  0  0  0  0  0  0  0  0  0
   31.6490   44.9280    4.6290 C   0  0  0  0  0  0  0  0  0  0  0  0
   30.1830   38.6610    1.2800 C   0  0  0  0  0  0  0  0  0  0  0  0
   30.0050   38.0210    0.2570 O   0  0  0  0  0  0  0  0  0  0  0  0
   30.8590   36.6700    2.6030 C   0  0  0  0  0  0  0  0  0  0  0  0
   30.8490   38.8790    3.6430 N   0  0  0  0  0  0  0  0  0  0  0  0
  1  2  2  0
  1  6  1  0
  1 20  1  0
  2 17  1  0
  3  4  1  0
  3 10  2  0
  4  7  2  0
  5  6  1  0
  5 29  1  0
  7  8  1  0
  7 12  1  0
  8  9  1  0
  9 29  1  0
  9 31  1  0
  9 32  1  0
 10 11  1  0
 11 12  2  0
 11 16  1  0
 13 14  1  0
 13 18  1  0
 14 15  1  0
 14 28  1  0
 15 16  1  0
 17 18  1  0
 17 19  2  0
 19 21  1  0
 20 21  2  0
 21 22  1  0
 22 23  1  0
 22 27  1  0
 23 24  1  0
 23 25  2  0
 23 26  2  0
 29 30  2  0
M  CHG  1  32   1
M  END
>  <s_m_entry_id>  (52) 
1103

>  <s_m_entry_name>  (52) 
2ph8.1

>  <s_pdb_PDB_TITLE>  (52) 
CRYSTAL STRUCTURE OF HUMAN BETA SECRETASE COMPLEXED WITH INHIBITOR

>  <s_m_Source_Path>  (52) 
/nfs/zone2/sindhikara/master/src/validation_scripts/tests/prime/macrocycle/BMS208

>  <s_m_Source_File>  (52) 
208refs.maegz

>  <i_m_Source_File_Index>  (52) 
193

>  <s_pdb_PDB_ID>  (52) 
2PH8

>  <r_pdb_PDB_R>  (52) 
0.185

>  <r_pdb_PDB_Rfree>  (52) 
0.204

>  <r_pdb_PDB_RESOLUTION>  (52) 
1.7

>  <s_m_Molecular_formula>  (52) 
C24H33N3O4S1

>  <r_m_Molecular_weight>  (52) 
459.61231

>  <i_m_Number_of_heavy_atoms>  (52) 
32

>  <i_m_Number_of_atoms>  (52) 
65

>  <s_user_Group>  (52) 
BACE

>  <s_user_Preparation>  (52) 
reference

>  <s_user_Primary_PMID>  (52) 
17827011                                                     

>  <s_user_Primary_DOI>  (52) 
10.1016/J.BMCL.2007.08.040     

>  <s_user_Unique_SMILES>  (52) 
C1OC(=O)[C@](C)([NH3+])Cc(ccc2)cc2CC[C@@H](C)CCc(cc13)nc(c3)N(C)S(=O)(=O)C

>  <s_user_Source>  (52) 
PDB

>  <s_user_InChI1S_Key>  (52) 
InChIKey=QWDOKZPZLWNULU-MZNJEOGPSA-N

>  <s_user_Sample>  (52) 
TEST

>  <s_m_subgroup_title>  (52) 
208refs

>  <s_m_subgroupid>  (52) 
208refs

>  <b_m_subgroup_collapsed>  (52) 
0

$$$$
2Q0R
     RDKit          3D

 61 69  0  0  1  0  0  0  0  0999 V2000
   16.0741   57.9389   46.6543 C   0  0  0  0  0  0  0  0  0  0  0  0
   14.8841   59.6199   49.4273 C   0  0  0  0  0  0  0  0  0  0  0  0
   21.2721   62.0779   39.6133 O   0  0  0  0  0  0  0  0  0  0  0  0
   16.5461   60.6929   51.0503 C   0  0  0  0  0  0  0  0  0  0  0  0
   14.6871   65.8269   52.1963 C   0  0  0  0  0  0  0  0  0  0  0  0
   16.2291   61.6439   52.1653 C   0  0  0  0  0  0  0  0  0  0  0  0
   14.7671   61.9199   52.2163 C   0  0  0  0  0  0  0  0  0  0  0  0
   14.6051   64.4509   52.8523 C   0  0  0  0  0  0  0  0  0  0  0  0
   15.1501   61.0599   41.7393 O   0  0  0  0  0  0  0  0  0  0  0  0
   17.0121   62.1549   52.9583 O   0  0  0  0  0  0  0  0  0  0  0  0
   14.1951   61.0469   51.2553 O   0  0  0  0  0  0  0  0  0  0  0  0
   15.1681   60.0509   50.8683 C   0  0  0  0  0  0  0  0  0  0  0  0
   15.0351   58.9069   51.8743 C   0  0  0  0  0  0  0  0  0  0  0  0
   14.8091   60.7399   48.5203 O   0  0  0  0  0  0  0  0  0  0  0  0
   15.9071   58.6149   48.8843 C   0  0  0  0  0  0  0  0  0  0  0  0
   17.2131   59.1339   48.2893 C   0  0  0  0  0  0  0  0  0  0  0  0
   17.5011   58.1839   47.1453 C   0  0  0  0  0  0  0  0  0  0  0  0
   15.2571   57.9379   47.8103 O   0  0  0  0  0  0  0  0  0  0  0  0
   15.6781   59.0969   45.8953 O   0  0  0  0  0  0  0  0  0  0  0  0
   15.8681   56.6449   45.8763 C   0  0  0  0  0  0  0  0  0  0  0  0
   16.5401   56.7209   44.5173 C   0  0  0  0  0  0  0  0  0  0  0  0
   16.0331   57.9579   43.7673 C   0  0  0  0  0  0  0  0  0  0  0  0
   16.2601   59.2359   44.6073 C   0  0  0  0  0  0  0  0  0  0  0  0
   15.6341   60.4909   43.9983 C   0  0  0  0  0  0  0  0  0  0  0  0
   16.0031   61.7099   44.8573 C   0  0  0  0  0  0  0  0  0  0  0  0
   15.9981   60.7079   42.5393 C   0  0  0  0  0  0  0  0  0  0  0  0
   14.7361   63.3679   51.8163 C   0  0  0  0  0  0  0  0  0  0  0  0
   15.1461   66.8489   53.2583 C   0  0  0  0  0  0  0  0  0  0  0  0
   13.3721   66.1549   51.4473 C   0  0  0  0  0  0  0  0  0  0  0  0
   15.5471   65.7769   51.0783 O   0  0  0  0  0  0  0  0  0  0  0  0
   15.0061   64.9539   50.0453 C   0  0  0  0  0  0  0  0  0  0  0  0
   15.0871   63.6259   50.4813 O   0  0  0  0  0  0  0  0  0  0  0  0
   13.5421   65.4169   50.1203 C   0  0  0  0  0  0  0  0  0  0  0  0
   15.8371   65.0459   48.7643 C   0  0  0  0  0  0  0  0  0  0  0  0
   15.8161   66.3469   48.2113 O   0  0  0  0  0  0  0  0  0  0  0  0
   15.7041   66.3279   46.7723 C   0  0  0  0  0  0  0  0  0  0  0  0
   14.3281   66.8799   46.4193 C   0  0  0  0  0  0  0  0  0  0  0  0
   15.8681   64.8659   46.3713 C   0  0  0  0  0  0  0  0  0  0  0  0
   15.4581   64.0959   47.6193 C   0  0  0  0  0  0  0  0  0  0  0  0
   16.8011   67.2379   46.2043 C   0  0  0  0  0  0  0  0  0  0  0  0
   16.9541   67.5169   44.6803 C   0  0  0  0  0  0  0  0  0  0  0  0
   17.8791   68.6979   44.4743 C   0  0  0  0  0  0  0  0  0  0  0  0
   17.5831   66.3369   44.0143 C   0  0  0  0  0  0  0  0  0  0  0  0
   16.9341   65.4049   43.3093 C   0  0  0  0  0  0  0  0  0  0  0  0
   15.4471   65.3719   43.0373 C   0  0  0  0  0  0  0  0  0  0  0  0
   17.8261   64.3659   42.8113 C   0  0  0  0  0  0  0  0  0  0  0  0
   17.3611   63.3569   42.1343 C   0  0  0  0  0  0  0  0  0  0  0  0
   18.3761   62.4229   41.5773 C   0  0  0  0  0  0  0  0  0  0  0  0
   19.7461   62.3439   41.9063 O   0  0  0  0  0  0  0  0  0  0  0  0
   20.1861   61.0319   41.4523 C   0  0  0  0  0  0  0  0  0  0  0  0
   19.2091   60.3899   40.4473 C   0  0  0  0  0  0  0  0  0  0  0  0
   18.1101   61.1109   41.0953 C   0  0  0  0  0  0  0  0  0  0  0  0
   17.3221   60.4079   42.0473 O   0  0  0  0  0  0  0  0  0  0  0  0
   21.5201   61.2909   40.8183 C   0  0  0  0  0  0  0  0  0  0  0  0
   22.3301   61.9639   41.7863 O   0  0  0  0  0  0  0  0  0  0  0  0
   23.6441   62.2989   41.3243 C   0  0  0  0  0  0  0  0  0  0  0  0
   24.5151   61.1449   40.8263 C   0  0  0  0  0  0  0  0  0  0  0  0
   23.7111   60.0409   40.1773 C   0  0  0  0  0  0  0  0  0  0  0  0
   24.3421   58.9369   39.3563 C   0  0  0  0  0  0  0  0  0  0  0  0
   22.3201   60.0099   40.6743 C   0  0  0  0  0  0  0  0  0  0  0  0
   21.9921   58.8569   41.4023 O   0  0  0  0  0  0  0  0  0  0  0  0
  1 17  1  0
  1 18  1  0
  1 19  1  0
  1 20  1  0
  2 12  1  0
  2 14  1  0
  2 15  1  0
  3 54  1  0
  4  6  1  0
  4 12  1  0
  5  8  1  0
  5 28  1  0
  5 29  1  0
  5 30  1  0
  6  7  1  0
  6 10  2  0
  7 11  1  0
  7 27  1  0
  8 27  1  0
  9 26  2  0
 11 12  1  0
 12 13  1  0
 15 16  1  0
 15 18  1  0
 16 17  1  0
 19 23  1  0
 20 21  1  0
 21 22  1  0
 22 23  1  0
 23 24  1  0
 24 25  1  0
 24 26  1  0
 26 53  1  0
 27 32  1  0
 29 33  1  0
 30 31  1  0
 31 32  1  0
 31 33  1  0
 31 34  1  0
 34 35  1  0
 34 39  1  0
 35 36  1  0
 36 37  1  0
 36 38  1  0
 36 40  1  0
 38 39  1  0
 40 41  1  0
 41 42  1  0
 41 43  1  0
 43 44  2  0
 44 45  1  0
 44 46  1  0
 46 47  2  0
 47 48  1  0
 48 49  1  0
 48 52  1  0
 49 50  1  0
 50 51  1  0
 50 54  1  0
 51 52  1  0
 52 53  1  0
 54 55  1  0
 54 60  1  0
 55 56  1  0
 56 57  1  0
 57 58  1  0
 58 59  1  0
 58 60  1  0
 60 61  1  0
M  END
>  <s_m_entry_id>  (53) 
1104

>  <s_m_entry_name>  (53) 
2q0r.1

>  <s_pdb_PDB_TITLE>  (53) 
STRUCTURE OF PECTENOTOXIN-2 BOUND TO ACTIN

>  <s_m_Source_Path>  (53) 
/nfs/zone2/sindhikara/master/src/validation_scripts/tests/prime/macrocycle/BMS208

>  <s_m_Source_File>  (53) 
208refs.maegz

>  <i_m_Source_File_Index>  (53) 
194

>  <s_pdb_PDB_ID>  (53) 
2Q0R

>  <r_pdb_PDB_R>  (53) 
0.168

>  <r_pdb_PDB_Rfree>  (53) 
0.204

>  <r_pdb_PDB_RESOLUTION>  (53) 
1.7

>  <s_m_Molecular_formula>  (53) 
C47H70O14

>  <r_m_Molecular_weight>  (53) 
859.07355

>  <i_m_Number_of_heavy_atoms>  (53) 
61

>  <i_m_Number_of_atoms>  (53) 
131

>  <s_user_Group>  (53) 
Example PDB

>  <s_user_Preparation>  (53) 
reference

>  <s_user_Primary_PMID>  (53) 
17599353                                                     

>  <s_user_Primary_DOI>  (53) 
10.1016/J.JMB.2007.05.056     

>  <s_user_Unique_SMILES>  (53) 
C1C[C@@](O2)(C)C[C@@H](O3)[C@@H](O4)C(=O)C[C@]4(C)[C@@H](O)[C@@H](O5)CC[C@@]5(O6)CCC[C@H]6[C@@H](C)C(=O)O[C@H](C[C@H](O7)[C@]8(O)[C@H](O)[C@H](C)CCO8)[C@H]7/C=C(\[H])C(\C)=C\[C@H](C)C[C@@](O9)(C)CC[C@@H]9[C@]123

>  <s_user_Source>  (53) 
PDB

>  <s_user_InChI1S_Key>  (53) 
InChIKey=PTKFEDGHUVZLPL-LLUYWJARSA-N

>  <s_user_Sample>  (53) 
TRAIN

>  <s_user_Name>  (53) 
Pectenotoxin-2

>  <s_user_Microstate_Comment>  (53) 
pyranose geometry looks poor.

>  <s_m_subgroup_title>  (53) 
208refs

>  <s_m_subgroupid>  (53) 
208refs

>  <b_m_subgroup_collapsed>  (53) 
0

$$$$
2QZK
     RDKit          3D

 40 44  0  0  1  0  0  0  0  0999 V2000
   29.7510   43.6850    1.1870 C   0  0  0  0  0  0  0  0  0  0  0  0
   28.6960   44.3120    0.4230 C   0  0  0  0  0  0  0  0  0  0  0  0
   27.6180   43.5380   -0.1530 C   0  0  0  0  0  0  0  0  0  0  0  0
   27.5920   42.1210    0.0890 C   0  0  0  0  0  0  0  0  0  0  0  0
   28.6420   41.4800    0.7960 C   0  0  0  0  0  0  0  0  0  0  0  0
   29.7440   42.2170    1.3610 C   0  0  0  0  0  0  0  0  0  0  0  0
   30.7850   44.5390    1.8170 C   0  0  0  0  0  0  0  0  0  0  0  0
   28.5480   39.9780    0.7490 C   0  0  0  0  0  0  0  0  0  0  0  0
   29.4990   39.4930    1.6940 O   0  0  0  0  0  0  0  0  0  0  0  0
   31.3190   43.9990    2.9150 N   0  0  0  0  0  0  0  0  0  0  0  0
   32.4190   44.4290    3.7820 C   0  0  0  0  0  0  0  0  0  0  0  0
   31.0700   37.8910    2.3880 C   0  0  0  0  0  0  0  0  0  0  0  0
   33.6930   43.5710    3.9130 C   0  0  0  0  0  0  0  0  0  0  0  0
   34.2870   43.0310    2.6050 C   0  0  0  0  0  0  0  0  0  0  0  0
   30.7960   38.5670    3.6660 N   0  0  0  0  0  0  0  0  0  0  0  0
   32.4800   38.2090    1.7940 C   0  0  0  0  0  0  0  0  0  0  0  0
   33.5770   41.9500    1.7850 C   0  0  0  0  0  0  0  0  0  0  0  0
   33.2870   40.6310    2.3110 C   0  0  0  0  0  0  0  0  0  0  0  0
   32.7580   39.6520    1.3830 C   0  0  0  0  0  0  0  0  0  0  0  0
   32.5000   39.9970    0.0010 C   0  0  0  0  0  0  0  0  0  0  0  0
   32.7800   41.3210   -0.5040 C   0  0  0  0  0  0  0  0  0  0  0  0
   33.3190   42.2850    0.4120 C   0  0  0  0  0  0  0  0  0  0  0  0
   31.1600   45.1120    7.3020 C   0  0  0  0  0  0  0  0  0  0  0  0
   31.5550   44.4190    6.0880 C   0  0  0  0  0  0  0  0  0  0  0  0
   32.0270   45.2040    4.9390 C   0  0  0  0  0  0  0  0  0  0  0  0
   32.1190   46.6580    4.9330 C   0  0  0  0  0  0  0  0  0  0  0  0
   31.7040   47.3340    6.1460 C   0  0  0  0  0  0  0  0  0  0  0  0
   31.2420   46.5710    7.3050 C   0  0  0  0  0  0  0  0  0  0  0  0
   30.0570   38.3200    1.3860 C   0  0  0  0  0  0  0  0  0  0  0  0
   30.7650   36.3610    2.6280 C   0  0  0  0  0  0  0  0  0  0  0  0
   31.1820   45.6460    1.4290 O   0  0  0  0  0  0  0  0  0  0  0  0
   29.7410   37.6690    0.4250 O   0  0  0  0  0  0  0  0  0  0  0  0
   26.3140   43.8980   -2.3270 C   0  0  0  0  0  0  0  0  0  0  0  0
   25.1280   44.4080   -3.0450 C   0  0  0  0  0  0  0  0  0  0  0  0
   24.0730   45.1720   -2.3810 C   0  0  0  0  0  0  0  0  0  0  0  0
   24.2170   45.4240   -0.9540 C   0  0  0  0  0  0  0  0  0  0  0  0
   25.3760   44.9090   -0.2230 C   0  0  0  0  0  0  0  0  0  0  0  0
   26.4420   44.1440   -0.8750 C   0  0  0  0  0  0  0  0  0  0  0  0
   25.3100   45.0920    1.1960 C   0  0  0  0  0  0  0  0  0  0  0  0
   25.3610   44.9890    2.3500 N   0  0  0  0  0  0  0  0  0  0  0  0
  1  2  2  0
  1  6  1  0
  1  7  1  0
  2  3  1  0
  3  4  2  0
  3 38  1  0
  4  5  1  0
  5  6  2  0
  5  8  1  0
  7 10  1  0
  7 31  2  0
  8  9  1  0
  9 29  1  0
 10 11  1  0
 11 13  1  0
 11 25  1  0
 12 15  1  0
 12 16  1  0
 12 29  1  0
 12 30  1  0
 13 14  1  0
 14 17  1  0
 16 19  1  0
 17 18  2  0
 17 22  1  0
 18 19  1  0
 19 20  2  0
 20 21  1  0
 21 22  2  0
 23 24  2  0
 23 28  1  0
 24 25  1  0
 25 26  2  0
 26 27  1  0
 27 28  2  0
 29 32  2  0
 33 34  2  0
 33 38  1  0
 34 35  1  0
 35 36  2  0
 36 37  1  0
 37 38  2  0
 37 39  1  0
 39 40  3  0
M  CHG  1  15   1
M  END
>  <s_m_entry_id>  (54) 
1105

>  <s_m_entry_name>  (54) 
2qzk.1

>  <s_pdb_PDB_TITLE>  (54) 
CRYSTAL STRUCTURE OF HUMAN BETA SECRETASE COMPLEXED WITH I21

>  <s_m_Source_Path>  (54) 
/nfs/zone2/sindhikara/master/src/validation_scripts/tests/prime/macrocycle/BMS208

>  <s_m_Source_File>  (54) 
208refs.maegz

>  <i_m_Source_File_Index>  (54) 
195

>  <s_pdb_PDB_ID>  (54) 
2QZK

>  <r_pdb_PDB_R>  (54) 
0.206

>  <r_pdb_PDB_Rfree>  (54) 
0.227

>  <r_pdb_PDB_RESOLUTION>  (54) 
1.8

>  <s_m_Molecular_formula>  (54) 
C34H31N3O3

>  <r_m_Molecular_weight>  (54) 
529.64447

>  <i_m_Number_of_heavy_atoms>  (54) 
40

>  <i_m_Number_of_atoms>  (54) 
71

>  <s_user_Group>  (54) 
BACE

>  <s_user_Preparation>  (54) 
reference

>  <s_user_Primary_PMID>  (54) 
17827011                                                     

>  <s_user_Primary_DOI>  (54) 
10.1016/J.BMCL.2007.08.040     

>  <s_user_Unique_SMILES>  (54) 
c1cccc(c1C#N)-c(cc23)cc(c2)COC(=O)[C@](C)([NH3+])Cc4cc(ccc4)CC[C@@H](NC3=O)c5ccccc5

>  <s_user_Source>  (54) 
PDB

>  <s_user_InChI1S_Key>  (54) 
InChIKey=LTHZWJXJHAGGMX-QIKUIUABSA-N

>  <s_user_Sample>  (54) 
TRAIN

>  <s_m_subgroup_title>  (54) 
208refs

>  <s_m_subgroupid>  (54) 
208refs

>  <b_m_subgroup_collapsed>  (54) 
0

$$$$
2VYP
     RDKit          3D

104106  0  0  1  0  0  0  0  0999 V2000
    0.5845   71.1729   46.6823 O   0  0  0  0  0  0  0  0  0  0  0  0
    0.5725   69.9359   46.7753 C   0  0  0  0  0  0  0  0  0  0  0  0
    0.8245   69.1799   45.7763 N   0  0  0  0  0  0  0  0  0  0  0  0
    1.1005   69.7849   44.4753 C   0  0  0  0  0  0  0  0  0  0  0  0
    0.8445   67.9039   45.9243 C   0  0  0  0  0  0  0  0  0  0  0  0
    1.1295   67.0619   44.9233 C   0  0  0  0  0  0  0  0  0  0  0  0
    1.1435   65.5749   45.1533 C   0  0  0  0  0  0  0  0  0  0  0  0
    2.5235   64.9319   44.9073 C   0  0  0  0  0  0  0  0  0  0  0  0
    2.8725   65.1259   43.5243 O   0  0  0  0  0  0  0  0  0  0  0  0
    2.1305   64.2739   42.6493 C   0  0  0  0  0  0  0  0  0  0  0  0
    3.6075   65.4709   45.8323 C   0  0  0  0  0  0  0  0  0  0  0  0
    3.3235   65.2409   47.3233 C   0  0  0  0  0  0  0  0  0  0  0  0
    4.9245   64.8319   45.4553 C   0  0  0  0  0  0  0  0  0  0  0  0
    5.0765   63.5949   45.4053 O   0  0  0  0  0  0  0  0  0  0  0  0
    6.0765   65.7739   45.1303 C   0  0  0  0  0  0  0  0  0  0  0  0
    7.4295   65.0599   45.1413 C   0  0  0  0  0  0  0  0  0  0  0  0
    8.5735   66.0439   44.9313 C   0  0  0  0  0  0  0  0  0  0  0  0
    8.4175   66.7199   43.5573 C   0  0  0  0  0  0  0  0  0  0  0  0
    9.9535   65.3919   45.0753 C   0  0  0  0  0  0  0  0  0  0  0  0
   10.1715   64.9439   46.4163 O   0  0  0  0  0  0  0  0  0  0  0  0
   10.3665   65.9809   47.3883 C   0  0  0  0  0  0  0  0  0  0  0  0
   10.1145   64.2459   44.0363 C   0  0  0  0  0  0  0  0  0  0  0  0
   11.6125   63.9269   43.8103 C   0  0  0  0  0  0  0  0  0  0  0  0
   12.4035   65.0509   43.4043 O   0  0  0  0  0  0  0  0  0  0  0  0
   13.2455   65.6699   44.4153 C   0  0  0  0  0  0  0  0  0  0  0  0
   13.3445   65.1999   45.5533 O   0  0  0  0  0  0  0  0  0  0  0  0
   13.9695   66.9069   44.0023 C   0  0  0  0  0  0  0  0  0  0  0  0
   15.4335   66.7599   44.3723 C   0  0  0  0  0  0  0  0  0  0  0  0
   15.9115   65.7099   43.5893 O   0  0  0  0  0  0  0  0  0  0  0  0
   16.1435   68.0399   44.0433 C   0  0  0  0  0  0  0  0  0  0  0  0
   17.6475   68.0019   44.3263 C   0  0  0  0  0  0  0  0  0  0  0  0
   18.2385   69.1129   43.6543 O   0  0  0  0  0  0  0  0  0  0  0  0
   19.6745   69.1639   43.7883 C   0  0  0  0  0  0  0  0  0  0  0  0
   17.8575   68.0729   45.8073 C   0  0  0  0  0  0  0  0  0  0  0  0
   17.9245   66.9589   46.5113 C   0  0  0  0  0  0  0  0  0  0  0  0
   18.1135   67.0449   47.9483 C   0  0  0  0  0  0  0  0  0  0  0  0
   18.2165   65.9289   48.6883 C   0  0  0  0  0  0  0  0  0  0  0  0
   18.4225   66.0249   50.1863 C   0  0  0  0  0  0  0  0  0  0  0  0
   17.3745   65.1619   50.8463 C   0  0  0  0  0  0  0  0  0  0  0  0
   17.3555   65.5499   52.2173 O   0  0  0  0  0  0  0  0  0  0  0  0
   16.2235   64.9859   52.9103 C   0  0  0  0  0  0  0  0  0  0  0  0
   17.6425   63.6849   50.6813 C   0  0  0  0  0  0  0  0  0  0  0  0
   18.6435   62.8389   51.0453 N   0  0  0  0  0  0  0  0  0  0  0  0
   16.6785   62.9759   50.0133 C   0  0  0  0  0  0  0  0  0  0  0  0
   17.1455   61.5879   49.9693 O   0  0  0  0  0  0  0  0  0  0  0  0
   18.3395   61.5849   50.6203 C   0  0  0  0  0  0  0  0  0  0  0  0
   19.1915   60.3569   50.8263 C   0  0  0  0  0  0  0  0  0  0  0  0
   20.1345   60.2769   49.6573 C   0  0  0  0  0  0  0  0  0  0  0  0
   19.3605   60.0039   48.5053 O   0  0  0  0  0  0  0  0  0  0  0  0
   21.2155   59.1929   49.7673 C   0  0  0  0  0  0  0  0  0  0  0  0
   20.5095   57.8499   49.8193 C   0  0  0  0  0  0  0  0  0  0  0  0
   22.1475   59.4629   50.9573 C   0  0  0  0  0  0  0  0  0  0  0  0
   12.0705   62.7269   42.9813 C   0  0  0  0  0  0  0  0  0  0  0  0
   11.3655   61.4829   43.4993 C   0  0  0  0  0  0  0  0  0  0  0  0
   11.5705   62.9559   41.5563 C   0  0  0  0  0  0  0  0  0  0  0  0
   13.6105   62.5989   43.0073 C   0  0  0  0  0  0  0  0  0  0  0  0
   13.9485   62.2119   44.3243 O   0  0  0  0  0  0  0  0  0  0  0  0
   14.2105   61.5489   42.0713 C   0  0  0  0  0  0  0  0  0  0  0  0
   15.7295   61.6489   41.9283 C   0  0  0  0  0  0  0  0  0  0  0  0
   16.6175   60.8349   42.5613 O   0  0  0  0  0  0  0  0  0  0  0  0
   17.9565   61.3019   42.1203 C   0  0  0  0  0  0  0  0  0  0  0  0
   16.4265   62.5589   41.1773 N   0  0  0  0  0  0  0  0  0  0  0  0
   17.7345   62.3519   41.2833 C   0  0  0  0  0  0  0  0  0  0  0  0
   18.9305   63.0319   40.6923 C   0  0  0  0  0  0  0  0  0  0  0  0
   18.9265   63.0679   39.2433 O   0  0  0  0  0  0  0  0  0  0  0  0
   19.0315   61.7519   38.6993 C   0  0  0  0  0  0  0  0  0  0  0  0
   18.9415   64.4809   41.1123 C   0  0  0  0  0  0  0  0  0  0  0  0
   19.1745   64.6819   42.5923 C   0  0  0  0  0  0  0  0  0  0  0  0
   20.2745   65.3209   43.0083 C   0  0  0  0  0  0  0  0  0  0  0  0
   20.4855   65.5159   44.4343 C   0  0  0  0  0  0  0  0  0  0  0  0
   21.5865   66.1159   44.8423 C   0  0  0  0  0  0  0  0  0  0  0  0
   21.8265   66.3369   46.3073 C   0  0  0  0  0  0  0  0  0  0  0  0
   22.3615   67.6729   46.3593 O   0  0  0  0  0  0  0  0  0  0  0  0
   21.8145   68.4399   47.4403 C   0  0  0  0  0  0  0  0  0  0  0  0
   22.7165   65.2589   46.9483 C   0  0  0  0  0  0  0  0  0  0  0  0
   22.0695   63.8589   46.9673 C   0  0  0  0  0  0  0  0  0  0  0  0
   20.9495   63.7999   47.8833 O   0  0  0  0  0  0  0  0  0  0  0  0
   23.1075   62.8109   47.3843 C   0  0  0  0  0  0  0  0  0  0  0  0
   22.5415   61.4119   47.3773 C   0  0  0  0  0  0  0  0  0  0  0  0
   22.0025   60.9889   46.3913 O   0  0  0  0  0  0  0  0  0  0  0  0
   22.6625   60.5679   48.5683 O   0  0  0  0  0  0  0  0  0  0  0  0
   22.0675   59.2789   48.4983 C   0  0  0  0  0  0  0  0  0  0  0  0
   23.1805   58.2199   48.3593 C   0  0  0  0  0  0  0  0  0  0  0  0
   24.0575   58.4869   47.1183 C   0  0  0  0  0  0  0  0  0  0  0  0
   23.2255   58.2329   45.9953 O   0  0  0  0  0  0  0  0  0  0  0  0
   23.7055   58.5929   44.7043 C   0  0  0  0  0  0  0  0  0  0  0  0
   25.3545   57.6439   47.1273 C   0  0  0  0  0  0  0  0  0  0  0  0
   26.2075   58.0859   48.3023 C   0  0  0  0  0  0  0  0  0  0  0  0
   25.0915   56.1479   47.2053 C   0  0  0  0  0  0  0  0  0  0  0  0
   26.3245   55.3429   46.8663 C   0  0  0  0  0  0  0  0  0  0  0  0
   26.1245   53.8619   46.9563 C   0  0  0  0  0  0  0  0  0  0  0  0
   25.0455   53.3909   47.2583 O   0  0  0  0  0  0  0  0  0  0  0  0
   27.3035   52.9569   46.6623 C   0  0  0  0  0  0  0  0  0  0  0  0
   27.0295   52.1989   45.3753 C   0  0  0  0  0  0  0  0  0  0  0  0
   27.5645   51.9939   47.8293 C   0  0  0  0  0  0  0  0  0  0  0  0
   27.5105   52.6899   49.1003 O   0  0  0  0  0  0  0  0  0  0  0  0
   27.5115   51.8779   50.2673 C   0  0  0  0  0  0  0  0  0  0  0  0
   28.8595   51.2009   47.6123 C   0  0  0  0  0  0  0  0  0  0  0  0
   30.0755   52.0579   47.2963 C   0  0  0  0  0  0  0  0  0  0  0  0
   30.7495   51.9249   46.1133 C   0  0  0  0  0  0  0  0  0  0  0  0
   31.7825   52.6299   45.8163 N   0  0  0  0  0  0  0  0  0  0  0  0
   32.2755   53.5979   46.7883 C   0  0  0  0  0  0  0  0  0  0  0  0
   32.3665   52.4769   44.6803 C   0  0  0  0  0  0  0  0  0  0  0  0
   33.3805   53.0949   44.3283 O   0  0  0  0  0  0  0  0  0  0  0  0
  1  2  2  0
  2  3  1  0
  3  4  1  0
  3  5  1  0
  5  6  2  0
  6  7  1  0
  7  8  1  0
  8  9  1  0
  8 11  1  0
  9 10  1  0
 11 12  1  0
 11 13  1  0
 13 14  2  0
 13 15  1  0
 15 16  1  0
 16 17  1  0
 17 18  1  0
 17 19  1  0
 19 20  1  0
 19 22  1  0
 20 21  1  0
 22 23  1  0
 23 24  1  0
 23 53  1  0
 24 25  1  0
 25 26  2  0
 25 27  1  0
 27 28  1  0
 28 29  1  0
 28 30  1  0
 30 31  1  0
 31 32  1  0
 31 34  1  0
 32 33  1  0
 34 35  2  0
 35 36  1  0
 36 37  2  0
 37 38  1  0
 38 39  1  0
 39 40  1  0
 39 42  1  0
 40 41  1  0
 42 43  1  0
 42 44  2  0
 43 46  2  0
 44 45  1  0
 45 46  1  0
 46 47  1  0
 47 48  1  0
 48 49  1  0
 48 50  1  0
 50 51  1  0
 50 52  1  0
 50 82  1  0
 53 54  1  0
 53 55  1  0
 53 56  1  0
 56 57  1  0
 56 58  1  0
 58 59  1  0
 59 60  1  0
 59 62  2  0
 60 61  1  0
 61 63  2  0
 62 63  1  0
 63 64  1  0
 64 65  1  0
 64 67  1  0
 65 66  1  0
 67 68  1  0
 68 69  2  0
 69 70  1  0
 70 71  2  0
 71 72  1  0
 72 73  1  0
 72 75  1  0
 73 74  1  0
 75 76  1  0
 76 77  1  0
 76 78  1  0
 78 79  1  0
 79 80  2  0
 79 81  1  0
 81 82  1  0
 82 83  1  0
 83 84  1  0
 84 85  1  0
 84 87  1  0
 85 86  1  0
 87 88  1  0
 87 89  1  0
 89 90  1  0
 90 91  1  0
 91 92  2  0
 91 93  1  0
 93 94  1  0
 93 95  1  0
 95 96  1  0
 95 98  1  0
 96 97  1  0
 98 99  1  0
 99100  2  0
100101  1  0
101102  1  0
101103  1  0
103104  2  0
M  END
>  <s_m_entry_id>  (55) 
1106

>  <s_m_entry_name>  (55) 
2vyp.1

>  <s_pdb_PDB_TITLE>  (55) 
RABBIT-MUSCLE G-ACTIN IN COMPLEX WITH MYXOBACTERIAL RHIZOPODIN

>  <s_m_Source_Path>  (55) 
/nfs/zone2/sindhikara/master/src/validation_scripts/tests/prime/macrocycle/BMS208

>  <s_m_Source_File>  (55) 
208refs.maegz

>  <i_m_Source_File_Index>  (55) 
196

>  <s_pdb_PDB_ID>  (55) 
2VYP

>  <r_pdb_PDB_R>  (55) 
0.186

>  <r_pdb_PDB_Rfree>  (55) 
0.241

>  <r_pdb_PDB_RESOLUTION>  (55) 
2.35

>  <s_m_Molecular_formula>  (55) 
C78H126N4O22

>  <r_m_Molecular_weight>  (55) 
1471.88752

>  <i_m_Number_of_heavy_atoms>  (55) 
104

>  <i_m_Number_of_atoms>  (55) 
230

>  <s_user_Group>  (55) 
Example PDB

>  <s_user_Preparation>  (55) 
reference

>  <s_user_Primary_PMID>  (55) 
19035596                                                     

>  <s_user_Primary_DOI>  (55) 
10.1002/ANIE.200802915     

>  <s_user_Unique_SMILES>  (55) 
O=CN(C)\C=C\C[C@@H](OC)[C@@H](C)C(=O)CC[C@H](C)[C@@H](OC)C[C@@H](C(C)(C)[C@@H](O)Cc(n1)occ12)OC(=O)C[C@@H](O)C[C@@H](OC)\C=C\C=C\C[C@H](OC)c3coc(n3)C[C@H](O)C(C)(C)[C@H](C[C@H](OC)[C@@H](C)CCC(=O)[C@H](C)[C@H](OC)C/C=C/N(C=O)C)OC(=O)C[C@@H](O)C[C@@H](OC)\C=C\C=C\C[C@@H]2OC

>  <s_user_Source>  (55) 
PDB

>  <s_user_InChI1S_Key>  (55) 
InChIKey=MWDPPGCTEBRUNT-IKBNIWNCSA-N

>  <s_user_Sample>  (55) 
TEST

>  <s_user_Name>  (55) 
rhizopodin

>  <s_m_subgroup_title>  (55) 
208refs

>  <s_m_subgroupid>  (55) 
208refs

>  <b_m_subgroup_collapsed>  (55) 
0

$$$$
2VZM
     RDKit          3D

 36 37  0  0  1  0  0  0  0  0999 V2000
   20.3587   67.4415   45.2411 C   0  0  0  0  0  0  0  0  0  0  0  0
   21.1527   66.6385   46.2421 C   0  0  0  0  0  0  0  0  0  0  0  0
   20.2247   65.8615   47.1841 C   0  0  0  0  0  0  0  0  0  0  0  0
   19.7247   64.7175   46.5301 O   0  0  0  0  0  0  0  0  0  0  0  0
   18.3657   64.9885   46.1981 C   0  0  0  0  0  0  0  0  0  0  0  0
   17.5537   65.3655   47.0351 O   0  0  0  0  0  0  0  0  0  0  0  0
   18.0177   64.8025   44.7831 C   0  0  0  0  0  0  0  0  0  0  0  0
   16.8007   65.6495   44.4861 C   0  0  0  0  0  0  0  0  0  0  0  0
   17.6557   63.3915   44.7771 C   0  0  0  0  0  0  0  0  0  0  0  0
   18.2477   62.5885   44.0931 O   0  0  0  0  0  0  0  0  0  0  0  0
   16.4787   63.1465   45.6841 C   0  0  0  0  0  0  0  0  0  0  0  0
   15.2027   63.3015   44.8541 C   0  0  0  0  0  0  0  0  0  0  0  0
   16.4827   61.8815   46.4741 C   0  0  0  0  0  0  0  0  0  0  0  0
   17.0407   60.8985   45.6591 O   0  0  0  0  0  0  0  0  0  0  0  0
   15.8527   60.8145   44.8601 C   0  0  0  0  0  0  0  0  0  0  0  0
   14.7287   60.4105   45.6681 O   0  0  0  0  0  0  0  0  0  0  0  0
   13.5097   60.3405   44.9161 C   0  0  0  0  0  0  0  0  0  0  0  0
   12.3747   60.1205   45.9181 C   0  0  0  0  0  0  0  0  0  0  0  0
   13.6477   59.2795   43.8181 C   0  0  0  0  0  0  0  0  0  0  0  0
   14.7307   59.7965   42.8691 C   0  0  0  0  0  0  0  0  0  0  0  0
   14.9327   58.8655   41.7341 N   0  0  0  0  0  0  0  0  0  0  0  0
   15.7337   57.6775   42.0431 C   0  0  0  0  0  0  0  0  0  0  0  0
   13.6427   58.5325   41.1361 C   0  0  0  0  0  0  0  0  0  0  0  0
   16.0107   59.8305   43.7161 C   0  0  0  0  0  0  0  0  0  0  0  0
   17.1817   60.1825   42.9871 O   0  0  0  0  0  0  0  0  0  0  0  0
   16.9167   61.9325   47.9211 C   0  0  0  0  0  0  0  0  0  0  0  0
   15.6677   61.4905   48.6701 C   0  0  0  0  0  0  0  0  0  0  0  0
   18.1057   61.0325   48.2061 C   0  0  0  0  0  0  0  0  0  0  0  0
   18.4717   61.0965   49.6861 C   0  0  0  0  0  0  0  0  0  0  0  0
   19.6457   60.1525   49.9701 C   0  0  0  0  0  0  0  0  0  0  0  0
   18.8397   62.5095   50.0371 C   0  0  0  0  0  0  0  0  0  0  0  0
   18.2787   63.1095   50.9401 O   0  0  0  0  0  0  0  0  0  0  0  0
   19.8797   63.2085   49.2571 C   0  0  0  0  0  0  0  0  0  0  0  0
   19.8757   64.5415   49.2251 C   0  0  0  0  0  0  0  0  0  0  0  0
   20.9037   65.3365   48.4381 C   0  0  0  0  0  0  0  0  0  0  0  0
   22.1307   64.5135   48.0851 C   0  0  0  0  0  0  0  0  0  0  0  0
  1  2  1  0
  2  3  1  0
  3  4  1  0
  3 35  1  0
  4  5  1  0
  5  6  2  0
  5  7  1  0
  7  8  1  0
  7  9  1  0
  9 10  2  0
  9 11  1  0
 11 12  1  0
 11 13  1  0
 13 14  1  0
 13 26  1  0
 14 15  1  0
 15 16  1  0
 15 24  1  0
 16 17  1  0
 17 18  1  0
 17 19  1  0
 19 20  1  0
 20 21  1  0
 20 24  1  0
 21 22  1  0
 21 23  1  0
 24 25  1  0
 26 27  1  0
 26 28  1  0
 28 29  1  0
 29 30  1  0
 29 31  1  0
 31 32  2  0
 31 33  1  0
 33 34  2  0
 34 35  1  0
 35 36  1  0
M  CHG  1  21   1
M  END
>  <s_m_entry_id>  (56) 
1107

>  <s_m_entry_name>  (56) 
2vzm.1

>  <s_pdb_PDB_TITLE>  (56) 
CRYSTAL STRUCTURE OF THE NARBOMYCIN-BOUND PIKC D50N MUTANT

>  <s_m_Source_Path>  (56) 
/nfs/zone2/sindhikara/master/src/validation_scripts/tests/prime/macrocycle/BMS208

>  <s_m_Source_File>  (56) 
208refs.maegz

>  <i_m_Source_File_Index>  (56) 
197

>  <s_pdb_PDB_ID>  (56) 
2VZM

>  <r_pdb_PDB_R>  (56) 
0.16512

>  <r_pdb_PDB_Rfree>  (56) 
0.21079

>  <r_pdb_PDB_RESOLUTION>  (56) 
1.85

>  <s_m_Molecular_formula>  (56) 
C28H48N1O7

>  <r_m_Molecular_weight>  (56) 
510.69726

>  <i_m_Number_of_heavy_atoms>  (56) 
36

>  <i_m_Number_of_atoms>  (56) 
84

>  <s_user_Group>  (56) 
Example PDB

>  <s_user_Preparation>  (56) 
reference

>  <s_user_Primary_PMID>  (56) 
19124459                                                     

>  <s_user_Primary_DOI>  (56) 
10.1074/JBC.M807592200     

>  <s_user_Unique_SMILES>  (56) 
O=C1/C=C/[C@@H](C)[C@@H](CC)OC(=O)[C@H](C)C(=O)[C@@H](C)[C@H]([C@@H](C)C[C@H]1C)O[C@H](O2)[C@H](O)[C@@H]([NH+](C)C)C[C@H]2C

>  <s_user_Source>  (56) 
PDB

>  <s_user_InChI1S_Key>  (56) 
InChIKey=OXFYAOOMMKGGAI-LSFOASJVSA-N

>  <s_user_Sample>  (56) 
TRAIN

>  <s_user_Name>  (56) 
Narbomycin-like

>  <s_user_Microstate_Comment>  (56) 
2vzm and 2c7x both claim to be narbomycin, but only 2c7x has the correct stereochem. 

>  <s_m_subgroup_title>  (56) 
208refs

>  <s_m_subgroupid>  (56) 
208refs

>  <b_m_subgroup_collapsed>  (56) 
0

$$$$
2WEA
     RDKit          3D

 39 42  0  0  1  0  0  0  0  0999 V2000
   18.3240    8.1940   19.2700 O   0  0  0  0  0  0  0  0  0  0  0  0
   20.6460    5.3500   19.3010 C   0  0  0  0  0  0  0  0  0  0  0  0
   20.4000    4.0190   19.5400 C   0  0  0  0  0  0  0  0  0  0  0  0
   21.3790    3.1650   20.0840 C   0  0  0  0  0  0  0  0  0  0  0  0
   22.5950    3.6380   20.5120 C   0  0  0  0  0  0  0  0  0  0  0  0
   22.8690    5.0540   20.3820 C   0  0  0  0  0  0  0  0  0  0  0  0
   21.9270    5.8920   19.7190 C   0  0  0  0  0  0  0  0  0  0  0  0
   22.2400    7.2810   19.5530 C   0  0  0  0  0  0  0  0  0  0  0  0
   23.4200    7.8350   20.0410 C   0  0  0  0  0  0  0  0  0  0  0  0
   24.3610    6.9950   20.6940 C   0  0  0  0  0  0  0  0  0  0  0  0
   24.0980    5.6450   20.8270 C   0  0  0  0  0  0  0  0  0  0  0  0
   19.5030    6.2380   18.8080 C   0  0  0  0  0  0  0  0  0  0  0  0
   19.0670    7.3220   19.7830 C   0  0  0  0  0  0  0  0  0  0  0  0
   23.6400    9.3370   19.9820 C   0  0  0  0  0  0  0  0  0  0  0  0
   22.9820   10.0360   21.2190 C   0  0  0  0  0  0  0  0  0  0  0  0
   19.5730    7.3950   21.0100 N   0  0  0  0  0  0  0  0  0  0  0  0
   19.4800    8.5420   21.9310 C   0  0  0  0  0  0  0  0  0  0  0  0
   21.0040    8.8630   22.0560 C   0  0  0  0  0  0  0  0  0  0  0  0
   21.6090    8.2350   22.9450 O   0  0  0  0  0  0  0  0  0  0  0  0
   18.7350    8.2860   23.2190 C   0  0  0  0  0  0  0  0  0  0  0  0
   18.7460    9.6160   23.9800 C   0  0  0  0  0  0  0  0  0  0  0  0
   17.3240    7.8260   22.7770 C   0  0  0  0  0  0  0  0  0  0  0  0
   21.5280    9.7910   21.2620 N   0  0  0  0  0  0  0  0  0  0  0  0
   23.3010   11.8140   21.1240 P   0  0  0  0  0  0  0  0  0  0  0  0
   24.7480   12.0480   20.9510 O   0  0  0  0  0  0  0  0  0  0  0  0
   22.5020   12.4680   20.0940 O   0  0  0  0  0  0  0  0  0  0  0  0
   23.5590   13.4510   23.1560 C   0  0  0  0  0  0  0  0  0  0  0  0
   22.4750   14.4860   23.5190 C   0  0  0  0  0  0  0  0  0  0  0  0
   21.4740   13.9950   24.5040 C   0  0  0  0  0  0  0  0  0  0  0  0
   20.4650   13.1320   24.1330 C   0  0  0  0  0  0  0  0  0  0  0  0
   21.5310   14.4310   25.8010 C   0  0  0  0  0  0  0  0  0  0  0  0
   19.5650   12.6670   25.0680 C   0  0  0  0  0  0  0  0  0  0  0  0
   20.6380   13.9810   26.7540 C   0  0  0  0  0  0  0  0  0  0  0  0
   19.5870   13.1550   26.3720 C   0  0  0  0  0  0  0  0  0  0  0  0
   24.1510   12.8390   24.4310 C   0  0  0  0  0  0  0  0  0  0  0  0
   25.5120   13.4710   26.2230 C   0  0  0  0  0  0  0  0  0  0  0  0
   22.9760   12.2920   22.5840 O   0  0  0  0  0  0  0  0  0  0  0  0
   24.7450   13.8440   25.0500 O   0  0  0  0  0  0  0  0  0  0  0  0
   24.4250   11.6840   24.6420 O   0  0  0  0  0  0  0  0  0  0  0  0
  1 13  2  0
  2  3  2  0
  2  7  1  0
  2 12  1  0
  3  4  1  0
  4  5  2  0
  5  6  1  0
  6  7  2  0
  6 11  1  0
  7  8  1  0
  8  9  2  0
  9 10  1  0
  9 14  1  0
 10 11  2  0
 12 13  1  0
 13 16  1  0
 14 15  1  0
 15 23  1  0
 15 24  1  0
 16 17  1  0
 17 18  1  0
 17 20  1  0
 18 19  2  0
 18 23  1  0
 20 21  1  0
 20 22  1  0
 24 25  2  0
 24 26  1  0
 24 37  1  0
 27 28  1  0
 27 35  1  0
 27 37  1  0
 28 29  1  0
 29 30  2  0
 29 31  1  0
 30 32  1  0
 31 33  2  0
 32 34  2  0
 33 34  1  0
 35 38  1  0
 35 39  2  0
 36 38  1  0
M  CHG  1  26  -1
M  END
>  <s_m_entry_id>  (57) 
1108

>  <s_m_entry_name>  (57) 
2wea.1

>  <s_pdb_PDB_TITLE>  (57) 
ACID PROTEINASE (PENICILLOPEPSIN) (E.C.3.4.23.20) COMPLEX WITH PHOSPHONATE INHIBITOR: METHYL[CYCLO-7[(2R)-((N-VALYL) AMINO)-2-(HYDROXYL-(1S)-1-METHYOXYCARBONYL-2-PHENYLETHOXY) PHOSPHINYLOXY-ETHYL]-1-NAPHTHALENEACETAMIDE], SODIUM SALT

>  <s_m_Source_Path>  (57) 
/nfs/zone2/sindhikara/master/src/validation_scripts/tests/prime/macrocycle/BMS208

>  <s_m_Source_File>  (57) 
208refs.maegz

>  <i_m_Source_File_Index>  (57) 
198

>  <s_pdb_PDB_ID>  (57) 
2WEA

>  <r_pdb_PDB_R>  (57) 
0.145

>  <r_pdb_PDB_Rfree>  (57) 
0.19

>  <r_pdb_PDB_RESOLUTION>  (57) 
1.25

>  <s_m_Molecular_formula>  (57) 
C29H32N2O7P1

>  <r_m_Molecular_weight>  (57) 
551.56139

>  <i_m_Number_of_heavy_atoms>  (57) 
39

>  <i_m_Number_of_atoms>  (57) 
71

>  <s_user_Group>  (57) 
Example PDB

>  <s_user_Preparation>  (57) 
reference

>  <s_user_Unique_SMILES>  (57) 
c1ccccc1C[C@@H](C(=O)OC)OP([O-])(=O)[C@H](Cc(c2)ccc3c24)NC(=O)[C@H](C(C)C)NC(=O)Cc4ccc3

>  <s_user_Source>  (57) 
PDB

>  <s_user_InChI1S_Key>  (57) 
InChIKey=BJANYCOFDSBOJK-OIKPOIBNSA-N

>  <s_user_Sample>  (57) 
TEST

>  <s_m_subgroup_title>  (57) 
208refs

>  <s_m_subgroupid>  (57) 
208refs

>  <b_m_subgroup_collapsed>  (57) 
0

$$$$
2WHW
     RDKit          3D

 25 26  0  0  1  0  0  0  0  0999 V2000
   17.9658   59.3324   43.5283 O   0  0  0  0  0  0  0  0  0  0  0  0
   18.3318   59.5374   44.9113 C   0  0  0  0  0  0  0  0  0  0  0  0
   17.5988   60.7294   45.5843 C   0  0  0  0  0  0  0  0  0  0  0  0
   18.1908   60.9064   46.8883 O   0  0  0  0  0  0  0  0  0  0  0  0
   17.8978   59.8544   47.8103 C   0  0  0  0  0  0  0  0  0  0  0  0
   18.5028   60.3094   49.1283 C   0  0  0  0  0  0  0  0  0  0  0  0
   18.4458   58.5164   47.2753 C   0  0  0  0  0  0  0  0  0  0  0  0
   18.0108   58.3064   45.8003 C   0  0  0  0  0  0  0  0  0  0  0  0
   18.6288   57.0784   45.2533 N   0  0  0  0  0  0  0  0  0  0  0  0
   17.8408   55.8774   45.5863 C   0  0  0  0  0  0  0  0  0  0  0  0
   20.0348   56.8994   45.6493 C   0  0  0  0  0  0  0  0  0  0  0  0
   17.6798   62.0594   45.0233 O   0  0  0  0  0  0  0  0  0  0  0  0
   17.0278   62.5474   43.8313 C   0  0  0  0  0  0  0  0  0  0  0  0
   15.4858   62.5984   43.9083 C   0  0  0  0  0  0  0  0  0  0  0  0
   14.8508   63.9934   43.9233 C   0  0  0  0  0  0  0  0  0  0  0  0
   14.1118   64.3164   45.2243 C   0  0  0  0  0  0  0  0  0  0  0  0
   14.0778   65.8114   45.5033 C   0  0  0  0  0  0  0  0  0  0  0  0
   14.4798   66.1274   46.9373 C   0  0  0  0  0  0  0  0  0  0  0  0
   15.6188   67.1354   46.8663 C   0  0  0  0  0  0  0  0  0  0  0  0
   16.5978   66.9224   48.0103 C   0  0  0  0  0  0  0  0  0  0  0  0
   17.9678   66.3674   47.6073 C   0  0  0  0  0  0  0  0  0  0  0  0
   17.9558   64.8674   47.2923 C   0  0  0  0  0  0  0  0  0  0  0  0
   18.6518   64.5184   45.9723 C   0  0  0  0  0  0  0  0  0  0  0  0
   17.7658   64.8874   44.7803 C   0  0  0  0  0  0  0  0  0  0  0  0
   17.7048   63.9154   43.5793 C   0  0  0  0  0  0  0  0  0  0  0  0
  1  2  1  0
  2  3  1  0
  2  8  1  0
  3  4  1  0
  3 12  1  0
  4  5  1  0
  5  6  1  0
  5  7  1  0
  7  8  1  0
  8  9  1  0
  9 10  1  0
  9 11  1  0
 12 13  1  0
 13 14  1  0
 13 25  1  0
 14 15  1  0
 15 16  1  0
 16 17  1  0
 17 18  1  0
 18 19  1  0
 19 20  1  0
 20 21  1  0
 21 22  1  0
 22 23  1  0
 23 24  1  0
 24 25  1  0
M  CHG  1   9   1
M  END
>  <s_m_entry_id>  (58) 
1109

>  <s_m_entry_name>  (58) 
2whw.1

>  <s_pdb_PDB_TITLE>  (58) 
SELECTIVE OXIDATION OF CARBOLIDE C-H BONDS BY ENGINEERED MACROLIDE P450 MONOOXYGENASE

>  <s_m_Source_Path>  (58) 
/nfs/zone2/sindhikara/master/src/validation_scripts/tests/prime/macrocycle/BMS208

>  <s_m_Source_File>  (58) 
208refs.maegz

>  <i_m_Source_File_Index>  (58) 
199

>  <s_pdb_PDB_ID>  (58) 
2WHW

>  <r_pdb_PDB_R>  (58) 
0.177

>  <r_pdb_PDB_Rfree>  (58) 
0.256

>  <r_pdb_PDB_RESOLUTION>  (58) 
2.2

>  <s_m_Molecular_formula>  (58) 
C21H42N1O3

>  <r_m_Molecular_weight>  (58) 
356.57379

>  <i_m_Number_of_heavy_atoms>  (58) 
25

>  <i_m_Number_of_atoms>  (58) 
67

>  <s_user_Group>  (58) 
Example PDB

>  <s_user_Preparation>  (58) 
reference

>  <s_user_Primary_PMID>  (58) 
19833867                                                     

>  <s_user_Primary_DOI>  (58) 
10.1073/PNAS.0907203106     

>  <s_user_Unique_SMILES>  (58) 
C[C@@H]1C[C@H]([NH+](C)C)[C@@H](O)[C@@H](O1)OC2CCCCCCCCCCCC2

>  <s_user_Source>  (58) 
PDB

>  <s_user_InChI1S_Key>  (58) 
InChIKey=LWQXCAWVTFBYID-PMXSJFBMSA-N

>  <s_user_Sample>  (58) 
TRAIN

>  <s_m_subgroup_title>  (58) 
208refs

>  <s_m_subgroupid>  (58) 
208refs

>  <b_m_subgroup_collapsed>  (58) 
0

$$$$
2XBK
     RDKit          3D

 46 48  0  0  1  0  0  0  0  0999 V2000
   22.6057   67.8134   43.7736 O   0  0  0  0  0  0  0  0  0  0  0  0
   22.3757   68.0994   44.9256 C   0  0  0  0  0  0  0  0  0  0  0  0
   22.2767   67.1844   46.0666 C   0  0  0  0  0  0  0  0  0  0  0  0
   21.6047   66.0764   45.9236 C   0  0  0  0  0  0  0  0  0  0  0  0
   21.4487   65.1654   47.0686 C   0  0  0  0  0  0  0  0  0  0  0  0
   20.7837   64.0384   46.8706 C   0  0  0  0  0  0  0  0  0  0  0  0
   20.6257   63.0754   48.0006 C   0  0  0  0  0  0  0  0  0  0  0  0
   19.1677   62.7714   48.2256 C   0  0  0  0  0  0  0  0  0  0  0  0
   19.0107   61.8974   49.4966 C   0  0  0  0  0  0  0  0  0  0  0  0
   17.6157   61.2354   49.4216 C   0  0  0  0  0  0  0  0  0  0  0  0
   17.6067   60.5714   48.1856 O   0  0  0  0  0  0  0  0  0  0  0  0
   17.3317   60.3024   50.5936 C   0  0  0  0  0  0  0  0  0  0  0  0
   16.5407   62.1964   49.3426 O   0  0  0  0  0  0  0  0  0  0  0  0
   18.4987   64.0464   48.3016 O   0  0  0  0  0  0  0  0  0  0  0  0
   22.1387   69.4334   45.2266 O   0  0  0  0  0  0  0  0  0  0  0  0
   21.7157   70.1904   44.0906 C   0  0  0  0  0  0  0  0  0  0  0  0
   22.1837   71.6184   44.4416 C   0  0  0  0  0  0  0  0  0  0  0  0
   20.1967   69.9944   43.6886 C   0  0  0  0  0  0  0  0  0  0  0  0
   19.4827   68.6994   44.1126 C   0  0  0  0  0  0  0  0  0  0  0  0
   19.3147   67.4834   43.5206 C   0  0  0  0  0  0  0  0  0  0  0  0
   18.5337   66.4574   44.2396 C   0  0  0  0  0  0  0  0  0  0  0  0
   18.4437   65.1564   43.9536 C   0  0  0  0  0  0  0  0  0  0  0  0
   17.6297   64.2724   44.7706 C   0  0  0  0  0  0  0  0  0  0  0  0
   17.5987   62.9954   44.4796 C   0  0  0  0  0  0  0  0  0  0  0  0
   16.8107   62.1004   45.2826 C   0  0  0  0  0  0  0  0  0  0  0  0
   16.8507   60.9114   44.7786 C   0  0  0  0  0  0  0  0  0  0  0  0
   16.1407   59.6894   45.3126 C   0  0  0  0  0  0  0  0  0  0  0  0
   16.8197   59.0324   46.5336 C   0  0  0  0  0  0  0  0  0  0  0  0
   16.4567   59.7144   47.8576 C   0  0  0  0  0  0  0  0  0  0  0  0
   16.3747   58.6524   48.9336 C   0  0  0  0  0  0  0  0  0  0  0  0
   15.2797   57.6744   48.6156 C   0  0  0  0  0  0  0  0  0  0  0  0
   14.1247   58.0304   48.5506 O   0  0  0  0  0  0  0  0  0  0  0  0
   15.5167   56.4044   48.3876 O   0  0  0  0  0  0  0  0  0  0  0  0
   16.1527   59.3754   50.2796 C   0  0  0  0  0  0  0  0  0  0  0  0
   16.0537   58.4094   51.3446 O   0  0  0  0  0  0  0  0  0  0  0  0
   14.7157   59.9354   45.3306 O   0  0  0  0  0  0  0  0  0  0  0  0
   14.0947   58.8604   44.5836 C   0  0  0  0  0  0  0  0  0  0  0  0
   13.6677   59.2644   43.2706 O   0  0  0  0  0  0  0  0  0  0  0  0
   13.1127   58.1694   42.5036 C   0  0  0  0  0  0  0  0  0  0  0  0
   12.6027   58.7924   41.2206 C   0  0  0  0  0  0  0  0  0  0  0  0
   11.9837   57.4634   43.2466 C   0  0  0  0  0  0  0  0  0  0  0  0
   11.4697   56.3784   42.4816 O   0  0  0  0  0  0  0  0  0  0  0  0
   12.4027   56.9814   44.6416 C   0  0  0  0  0  0  0  0  0  0  0  0
   11.2417   56.6054   45.3906 N   0  0  0  0  0  0  0  0  0  0  0  0
   13.0347   58.1464   45.4276 C   0  0  0  0  0  0  0  0  0  0  0  0
   12.0347   59.0604   45.8826 O   0  0  0  0  0  0  0  0  0  0  0  0
  1  2  2  0
  2  3  1  0
  2 15  1  0
  3  4  2  0
  4  5  1  0
  5  6  2  0
  6  7  1  0
  7  8  1  0
  8  9  1  0
  8 14  1  0
  9 10  1  0
 10 11  1  0
 10 12  1  0
 10 13  1  0
 11 29  1  0
 12 34  1  0
 15 16  1  0
 16 17  1  0
 16 18  1  0
 18 19  1  0
 19 20  2  0
 20 21  1  0
 21 22  2  0
 22 23  1  0
 23 24  2  0
 24 25  1  0
 25 26  2  0
 26 27  1  0
 27 28  1  0
 27 36  1  0
 28 29  1  0
 29 30  1  0
 30 31  1  0
 30 34  1  0
 31 32  2  0
 31 33  1  0
 34 35  1  0
 36 37  1  0
 37 38  1  0
 37 45  1  0
 38 39  1  0
 39 40  1  0
 39 41  1  0
 41 42  1  0
 41 43  1  0
 43 44  1  0
 43 45  1  0
 45 46  1  0
M  CHG  2  33  -1  44   1
M  END
>  <s_m_entry_id>  (59) 
1110

>  <s_m_entry_name>  (59) 
2xbk.1

>  <s_pdb_PDB_TITLE>  (59) 
X-RAY STRUCTURE OF THE SUBSTRATE-BOUND CYTOCHROME P450 PIMD - A POLYENE MACROLIDE ANTIBIOTIC PIMARICIN EPOXIDASE

>  <s_m_Source_Path>  (59) 
/nfs/zone2/sindhikara/master/src/validation_scripts/tests/prime/macrocycle/BMS208

>  <s_m_Source_File>  (59) 
208refs.maegz

>  <i_m_Source_File_Index>  (59) 
200

>  <s_pdb_PDB_ID>  (59) 
2XBK

>  <r_pdb_PDB_R>  (59) 
0.14977

>  <r_pdb_PDB_Rfree>  (59) 
0.21396

>  <r_pdb_PDB_RESOLUTION>  (59) 
1.95

>  <s_m_Molecular_formula>  (59) 
C33H47N1O12

>  <r_m_Molecular_weight>  (59) 
649.74204

>  <i_m_Number_of_heavy_atoms>  (59) 
46

>  <i_m_Number_of_atoms>  (59) 
93

>  <s_user_Group>  (59) 
Example PDB

>  <s_user_Preparation>  (59) 
reference

>  <s_user_Primary_PMID>  (59) 
20797613                                                     

>  <s_user_Primary_DOI>  (59) 
10.1016/J.CHEMBIOL.2010.05.026    

>  <s_user_Unique_SMILES>  (59) 
C[C@@H]1[C@@H](O)[C@H]([NH3+])[C@H](O)[C@@H](O1)O[C@H](C[C@H](O2)[C@H](C([O-])=O)[C@@H](O)C[C@]23O)\C=C\C=C\C=C\C=C\C[C@@H](C)OC(=O)/C=C/C=C/C[C@@H](C3)O

>  <s_user_Source>  (59) 
PDB

>  <s_user_InChI1S_Key>  (59) 
InChIKey=SQKHCBHOKICFHY-FNNGFRNWSA-N

>  <s_user_Sample>  (59) 
TRAIN

>  <s_m_subgroup_title>  (59) 
208refs

>  <s_m_subgroupid>  (59) 
208refs

>  <b_m_subgroup_collapsed>  (59) 
0

$$$$
3ABA
     RDKit          3D

 44 44  0  0  1  0  0  0  0  0999 V2000
   15.0361   58.8637   43.5980 C   0  0  0  0  0  0  0  0  0  0  0  0
   14.1651   59.7447   43.4630 O   0  0  0  0  0  0  0  0  0  0  0  0
   15.0531   57.9457   44.8270 C   0  0  0  0  0  0  0  0  0  0  0  0
   15.1241   58.7467   46.1570 C   0  0  0  0  0  0  0  0  0  0  0  0
   16.3371   59.7577   46.1960 C   0  0  0  0  0  0  0  0  0  0  0  0
   16.3901   60.5027   47.5690 C   0  0  0  0  0  0  0  0  0  0  0  0
   17.6031   61.4577   47.5770 C   0  0  0  0  0  0  0  0  0  0  0  0
   17.6441   62.2347   48.9230 C   0  0  0  0  0  0  0  0  0  0  0  0
   18.4691   63.5387   48.6870 C   0  0  0  0  0  0  0  0  0  0  0  0
   18.4861   64.3867   49.9890 C   0  0  0  0  0  0  0  0  0  0  0  0
   19.3731   65.6607   49.7540 C   0  0  0  0  0  0  0  0  0  0  0  0
   19.2291   66.6347   51.0190 C   0  0  0  0  0  0  0  0  0  0  0  0
   20.0721   67.9217   50.8390 C   0  0  0  0  0  0  0  0  0  0  0  0
   19.3161   68.9807   50.0210 C   0  0  0  0  0  0  0  0  0  0  0  0
   20.2601   70.1827   49.6590 C   0  0  0  0  0  0  0  0  0  0  0  0
   21.5371   69.9267   48.7670 C   0  0  0  0  0  0  0  0  0  0  0  0
   21.0241   69.3137   47.4480 C   0  0  0  0  0  0  0  0  0  0  0  0
   21.0001   67.9217   47.3070 C   0  0  0  0  0  0  0  0  0  0  0  0
   20.3501   67.2817   46.2170 C   0  0  0  0  0  0  0  0  0  0  0  0
   20.3551   65.9007   46.0530 C   0  0  0  0  0  0  0  0  0  0  0  0
   13.8041   57.0607   44.7470 C   0  0  0  0  0  0  0  0  0  0  0  0
   19.7301   65.2207   44.9870 C   0  0  0  0  0  0  0  0  0  0  0  0
   19.7731   63.7957   44.8880 C   0  0  0  0  0  0  0  0  0  0  0  0
   19.0541   63.1777   43.8410 C   0  0  0  0  0  0  0  0  0  0  0  0
   19.0581   61.8307   43.5430 C   0  0  0  0  0  0  0  0  0  0  0  0
   18.3261   61.4177   42.3850 C   0  0  0  0  0  0  0  0  0  0  0  0
   18.1471   60.0477   42.1220 C   0  0  0  0  0  0  0  0  0  0  0  0
   17.4161   59.5877   40.9660 C   0  0  0  0  0  0  0  0  0  0  0  0
   15.9331   59.5927   41.4030 C   0  0  0  0  0  0  0  0  0  0  0  0
   15.0091   58.8927   40.4000 C   0  0  0  0  0  0  0  0  0  0  0  0
   20.3981   70.2997   46.3820 C   0  0  0  0  0  0  0  0  0  0  0  0
   13.6211   56.2997   43.3690 C   0  0  0  0  0  0  0  0  0  0  0  0
   15.9531   58.6817   42.5900 O   0  0  0  0  0  0  0  0  0  0  0  0
   12.3731   55.4527   43.2740 C   0  0  0  0  0  0  0  0  0  0  0  0
   12.3781   54.8057   41.8880 C   0  0  0  0  0  0  0  0  0  0  0  0
   11.1521   53.9277   41.5000 C   0  0  0  0  0  0  0  0  0  0  0  0
   10.0781   54.7957   40.7730 C   0  0  0  0  0  0  0  0  0  0  0  0
   15.2731   57.7487   47.2030 O   0  0  0  0  0  0  0  0  0  0  0  0
   16.6161   59.4987   48.6350 O   0  0  0  0  0  0  0  0  0  0  0  0
   18.3351   61.3777   49.9070 O   0  0  0  0  0  0  0  0  0  0  0  0
   19.0971   63.5647   50.9850 O   0  0  0  0  0  0  0  0  0  0  0  0
   19.7061   65.9527   52.2150 O   0  0  0  0  0  0  0  0  0  0  0  0
   18.1051   69.3677   50.7040 O   0  0  0  0  0  0  0  0  0  0  0  0
   22.0651   71.2977   48.6320 O   0  0  0  0  0  0  0  0  0  0  0  0
  1  2  2  0
  1  3  1  0
  1 33  1  0
  3  4  1  0
  3 21  1  0
  4  5  1  0
  4 38  1  0
  5  6  1  0
  6  7  1  0
  6 39  1  0
  7  8  1  0
  8  9  1  0
  8 40  1  0
  9 10  1  0
 10 11  1  0
 10 41  1  0
 11 12  1  0
 12 13  1  0
 12 42  1  0
 13 14  1  0
 14 15  1  0
 14 43  1  0
 15 16  1  0
 16 17  1  0
 16 44  1  0
 17 18  2  0
 17 31  1  0
 18 19  1  0
 19 20  2  0
 20 22  1  0
 21 32  1  0
 22 23  2  0
 23 24  1  0
 24 25  2  0
 25 26  1  0
 26 27  2  0
 27 28  1  0
 28 29  1  0
 29 30  1  0
 29 33  1  0
 32 34  1  0
 34 35  1  0
 35 36  1  0
 36 37  1  0
M  END
>  <s_m_entry_id>  (60) 
1111

>  <s_m_entry_name>  (60) 
3aba.1

>  <s_pdb_PDB_TITLE>  (60) 
CRYSTAL STRUCTURE OF CYP105P1 IN COMPLEX WITH FILIPIN I

>  <s_m_Source_Path>  (60) 
/nfs/zone2/sindhikara/master/src/validation_scripts/tests/prime/macrocycle/BMS208

>  <s_m_Source_File>  (60) 
208refs.maegz

>  <i_m_Source_File_Index>  (60) 
201

>  <s_pdb_PDB_ID>  (60) 
3ABA

>  <r_pdb_PDB_R>  (60) 
0.188

>  <r_pdb_PDB_Rfree>  (60) 
0.238

>  <r_pdb_PDB_RESOLUTION>  (60) 
1.8

>  <s_m_Molecular_formula>  (60) 
C35H58O9

>  <r_m_Molecular_weight>  (60) 
622.84711

>  <i_m_Number_of_heavy_atoms>  (60) 
44

>  <i_m_Number_of_atoms>  (60) 
102

>  <s_user_Group>  (60) 
Example PDB

>  <s_user_Preparation>  (60) 
reference

>  <s_user_Primary_PMID>  (60) 
20375018                                                     

>  <s_user_Primary_DOI>  (60) 
10.1074/JBC.M109.092460     

>  <s_user_Unique_SMILES>  (60) 
O[C@H]1C[C@H](O)C[C@H](O)C[C@H](O)C[C@H](O)C[C@H](O)C[C@H](O)[C@@H](CCCCCC)C(=O)O[C@H](C)C/C=C/C=C/C=C/C=C/C=C1\C

>  <s_user_Source>  (60) 
PDB

>  <s_user_InChI1S_Key>  (60) 
InChIKey=FODXYXCKUOAJAV-XHDOTJGXSA-N

>  <s_user_Sample>  (60) 
TRAIN

>  <s_user_Name>  (60) 
filipin-like

>  <s_m_subgroup_title>  (60) 
208refs

>  <s_m_subgroupid>  (60) 
208refs

>  <b_m_subgroup_collapsed>  (60) 
0

$$$$
3AVJ-D_conf1
     RDKit          3D

 62 62  0  0  1  0  0  0  0  0999 V2000
    1.1353    7.2893    0.8567 N   0  0  0  0  0  0  0  0  0  0  0  0
    1.1074    7.0252   -0.5847 C   0  0  0  0  0  0  0  0  0  0  0  0
    0.0182    6.0613   -0.9863 C   0  0  0  0  0  0  0  0  0  0  0  0
   -1.0349    6.5029   -1.4875 O   0  0  0  0  0  0  0  0  0  0  0  0
    2.4290    6.4610   -1.0147 C   0  0  0  0  0  0  0  0  0  0  0  0
    0.2122    4.6175   -0.7804 N   0  0  0  0  0  0  0  0  0  0  0  0
   -0.8240    3.6568   -1.1639 C   0  0  0  0  0  0  0  0  0  0  0  0
   -0.3214    2.2339   -1.1928 C   0  0  0  0  0  0  0  0  0  0  0  0
    0.2148    1.7940   -2.2287 O   0  0  0  0  0  0  0  0  0  0  0  0
   -1.3318    3.9925   -2.5348 C   0  0  0  0  0  0  0  0  0  0  0  0
   -2.8021    4.2816   -2.4665 C   0  0  0  0  0  0  0  0  0  0  0  0
   -3.2745    4.1386   -1.0501 C   0  0  0  0  0  0  0  0  0  0  0  0
   -3.0590    5.6814   -2.9404 C   0  0  0  0  0  0  0  0  0  0  0  0
   -0.4731    1.3856   -0.0000 N   0  0  0  0  0  0  0  0  0  0  0  0
    0.0000    0.0000    0.0000 C   0  0  0  0  0  0  0  0  0  0  0  0
   -0.4841   -0.7893    1.1904 C   0  0  0  0  0  0  0  0  0  0  0  0
   -1.1945   -1.7979    1.0108 O   0  0  0  0  0  0  0  0  0  0  0  0
    1.5000    0.0000    0.0000 C   0  0  0  0  0  0  0  0  0  0  0  0
    2.0000   -1.4142   -0.0000 C   0  0  0  0  0  0  0  0  0  0  0  0
    3.5000   -1.4142   -0.0000 C   0  0  0  0  0  0  0  0  0  0  0  0
    4.0000   -2.8284   -0.0000 C   0  0  0  0  0  0  0  0  0  0  0  0
    3.5133   -3.5167   -1.1921 N   0  0  0  0  0  0  0  0  0  0  0  0
   -0.1086   -0.3602    2.5474 N   0  0  0  0  0  0  0  0  0  0  0  0
   -0.5497   -1.1138    3.7222 C   0  0  0  0  0  0  0  0  0  0  0  0
   -0.2976   -0.3903    5.0224 C   0  0  0  0  0  0  0  0  0  0  0  0
   -1.2594   -0.1243    5.7697 O   0  0  0  0  0  0  0  0  0  0  0  0
    0.1687   -2.4302    3.7571 C   0  0  0  0  0  0  0  0  0  0  0  0
   -0.8311   -3.5470    3.7013 C   0  0  0  0  0  0  0  0  0  0  0  0
    0.9629   -2.5329    5.0254 C   0  0  0  0  0  0  0  0  0  0  0  0
   -0.7034   -4.3943    4.9325 C   0  0  0  0  0  0  0  0  0  0  0  0
    1.0773   -0.0179    5.3926 N   0  0  0  0  0  0  0  0  0  0  0  0
    1.3617    0.6849    6.6447 C   0  0  0  0  0  0  0  0  0  0  0  0
    2.7325    1.3233    6.6418 C   0  0  0  0  0  0  0  0  0  0  0  0
    3.7343    0.6119    6.8496 O   0  0  0  0  0  0  0  0  0  0  0  0
    1.3022   -0.2944    7.7793 C   0  0  0  0  0  0  0  0  0  0  0  0
    0.2433    0.1318    8.7526 C   0  0  0  0  0  0  0  0  0  0  0  0
    0.0279   -0.5471    9.7747 O   0  0  0  0  0  0  0  0  0  0  0  0
   -0.4200    1.1642    8.5380 O   0  0  0  0  0  0  0  0  0  0  0  0
    2.8626    2.7661    6.3858 N   0  0  0  0  0  0  0  0  0  0  0  0
    4.1748    3.4165    6.3734 C   0  0  0  0  0  0  0  0  0  0  0  0
    4.0749    4.9185    6.5078 C   0  0  0  0  0  0  0  0  0  0  0  0
    3.2980    5.4045    7.3539 O   0  0  0  0  0  0  0  0  0  0  0  0
    4.8727    3.0889    5.0867 C   0  0  0  0  0  0  0  0  0  0  0  0
    4.0526    3.5850    3.9328 C   0  0  0  0  0  0  0  0  0  0  0  0
    3.3092    4.5614    3.9596 O   0  0  0  0  0  0  0  0  0  0  0  0
    4.2212    2.8327    2.8450 N   0  0  0  0  0  0  0  0  0  0  0  0
    4.8927    5.7822    5.6466 N   0  0  0  0  0  0  0  0  0  0  0  0
    4.8303    7.2420    5.7568 C   0  0  0  0  0  0  0  0  0  0  0  0
    3.5704    7.7470    5.0965 C   0  0  0  0  0  0  0  0  0  0  0  0
    2.6223    8.1387    5.8043 O   0  0  0  0  0  0  0  0  0  0  0  0
    6.0136    7.8353    5.0513 C   0  0  0  0  0  0  0  0  0  0  0  0
    7.2770    7.3335    5.6854 C   0  0  0  0  0  0  0  0  0  0  0  0
    7.3397    5.5590    5.5596 S   0  0  0  0  0  0  0  0  0  0  0  0
    7.2856    5.6186    3.7815 C   0  0  0  0  0  0  0  0  0  0  0  0
    3.4819    7.7726    3.6274 N   0  0  0  0  0  0  0  0  0  0  0  0
    2.2764    8.2645    2.9556 C   0  0  0  0  0  0  0  0  0  0  0  0
    2.2727    7.9917    1.4725 C   0  0  0  0  0  0  0  0  0  0  0  0
    3.2382    8.3756    0.7788 O   0  0  0  0  0  0  0  0  0  0  0  0
    2.1973    9.7487    3.1579 C   0  0  0  0  0  0  0  0  0  0  0  0
    3.3718   10.2057    3.9713 C   0  0  0  0  0  0  0  0  0  0  0  0
    3.2644   11.1987    4.7160 O   0  0  0  0  0  0  0  0  0  0  0  0
    4.4537    9.5920    3.9017 O   0  0  0  0  0  0  0  0  0  0  0  0
  1  2  1  0
  1 57  1  0
  2  3  1  0
  2  5  1  0
  3  4  2  0
  3  6  1  0
  6  7  1  0
  7  8  1  0
  7 10  1  0
  8  9  2  0
  8 14  1  0
 10 11  1  0
 11 12  1  0
 11 13  1  0
 14 15  1  0
 15 16  1  0
 15 18  1  0
 16 17  2  0
 16 23  1  0
 18 19  1  0
 19 20  1  0
 20 21  1  0
 21 22  1  0
 23 24  1  0
 24 25  1  0
 24 27  1  0
 25 26  2  0
 25 31  1  0
 27 28  1  0
 27 29  1  0
 28 30  1  0
 31 32  1  0
 32 33  1  0
 32 35  1  0
 33 34  2  0
 33 39  1  0
 35 36  1  0
 36 37  2  0
 36 38  1  0
 39 40  1  0
 40 41  1  0
 40 43  1  0
 41 42  2  0
 41 47  1  0
 43 44  1  0
 44 45  2  0
 44 46  1  0
 47 48  1  0
 48 49  1  0
 48 51  1  0
 49 50  2  0
 49 55  1  0
 51 52  1  0
 52 53  1  0
 53 54  1  0
 55 56  1  0
 56 57  1  0
 56 59  1  0
 57 58  2  0
 59 60  1  0
 60 61  2  0
 60 62  1  0
M  CHG  3  22   1  38  -1  62  -1
M  END
>  <i_m_stars>  (61) 
2

>  <s_m_entry_id>  (61) 
1047

>  <s_m_entry_name>  (61) 
208refs.137

>  <s_m_Source_Path>  (61) 
/nfs/zone2/sindhikara/master/src/validation_scripts/tests/prime/macrocycle/BMS208

>  <s_m_Source_File>  (61) 
208refs.maegz

>  <i_m_Source_File_Index>  (61) 
137

>  <r_lp_tautomer_probability>  (61) 
1

>  <r_epik_Ionization_Penalty>  (61) 
  0.0051

>  <r_epik_Ionization_Penalty_Charging>  (61) 
  0.0051

>  <r_epik_Ionization_Penalty_Neutral>  (61) 
  0.0000

>  <r_epik_State_Penalty>  (61) 
  0.0000

>  <i_epik_Tot_Q>  (61) 
-1

>  <i_lp_mmshare_version>  (61) 
32005

>  <r_pdb_PDB_RESOLUTION>  (61) 
1.7

>  <r_pdb_PDB_EXPDTA_PH>  (61) 
5

>  <s_user_comment>  (61) 
multiple opp. and unpaired charges. mod good temp factors.

>  <r_f3d_energy>  (61) 
1309.53260841934

>  <s_user_Group>  (61) 
B1

>  <s_user_mc_backbone_quality>  (61) 
A

>  <s_user_overall_b-factors>  (61) 
B

>  <s_user_ligand_name>  (61) 
ALLOSTERIC PEPTIDE INHIBITORS OF INTEGRASE

>  <s_user_mc_bb_conf_conserved>  (61) 
A

>  <s_m_subgroup_title>  (61) 
208refs

>  <s_m_subgroupid>  (61) 
208refs

>  <b_m_subgroup_collapsed>  (61) 
0

$$$$
3DV1
     RDKit          3D

 31 31  0  0  1  0  0  0  0  0999 V2000
   30.2780    6.1680   16.1530 N   0  0  0  0  0  0  0  0  0  0  0  0
   31.3230    6.4560   15.1800 C   0  0  0  0  0  0  0  0  0  0  0  0
   32.3640    7.3660   15.9020 C   0  0  0  0  0  0  0  0  0  0  0  0
   31.7050    8.7570   16.1610 C   0  0  0  0  0  0  0  0  0  0  0  0
   32.5680    9.5910   17.1470 C   0  0  0  0  0  0  0  0  0  0  0  0
   32.3670    9.0960   18.5910 C   0  0  0  0  0  0  0  0  0  0  0  0
   31.2010    9.8610   19.2110 C   0  0  0  0  0  0  0  0  0  0  0  0
   30.9680    9.4240   20.6960 C   0  0  0  0  0  0  0  0  0  0  0  0
   29.8610    8.3500   20.7720 C   0  0  0  0  0  0  0  0  0  0  0  0
   28.6230    8.9690   20.1150 C   0  0  0  0  0  0  0  0  0  0  0  0
   27.4380    8.0290   20.1090 C   0  0  0  0  0  0  0  0  0  0  0  0
   27.5710    6.8730   19.1500 C   0  0  0  0  0  0  0  0  0  0  0  0
   27.9460    7.1350   17.8630 N   0  0  0  0  0  0  0  0  0  0  0  0
   28.0080    6.0150   16.9000 C   0  0  0  0  0  0  0  0  0  0  0  0
   28.9810    6.3180   15.8050 C   0  0  0  0  0  0  0  0  0  0  0  0
   28.6100    6.6670   14.6830 O   0  0  0  0  0  0  0  0  0  0  0  0
   26.5760    5.8380   16.3420 C   0  0  0  0  0  0  0  0  0  0  0  0
   27.3280    5.7550   19.5810 O   0  0  0  0  0  0  0  0  0  0  0  0
   31.6520    9.5150   14.8030 C   0  0  0  0  0  0  0  0  0  0  0  0
   31.9740    5.1550   14.6640 C   0  0  0  0  0  0  0  0  0  0  0  0
   32.6100    4.4580   15.7470 O   0  0  0  0  0  0  0  0  0  0  0  0
   30.9060    4.2010   14.0630 C   0  0  0  0  0  0  0  0  0  0  0  0
   31.6250    3.2060   13.1350 C   0  0  0  0  0  0  0  0  0  0  0  0
   30.8100    1.8980   13.0480 C   0  0  0  0  0  0  0  0  0  0  0  0
   31.6660    3.7310   11.7080 C   0  0  0  0  0  0  0  0  0  0  0  0
   30.7560    4.4310   11.2930 O   0  0  0  0  0  0  0  0  0  0  0  0
   32.7300    3.3850   10.9810 N   0  0  0  0  0  0  0  0  0  0  0  0
   32.8420    3.8090    9.5900 C   0  0  0  0  0  0  0  0  0  0  0  0
   34.2010    3.2980    9.0660 C   0  0  0  0  0  0  0  0  0  0  0  0
   34.3310    3.4770    7.5290 C   0  0  0  0  0  0  0  0  0  0  0  0
   34.4690    4.9720    7.1620 C   0  0  0  0  0  0  0  0  0  0  0  0
  1  2  1  0
  1 15  1  0
  2  3  1  0
  2 20  1  0
  3  4  1  0
  4  5  1  0
  4 19  1  0
  5  6  1  0
  6  7  1  0
  7  8  1  0
  8  9  1  0
  9 10  1  0
 10 11  1  0
 11 12  1  0
 12 13  1  0
 12 18  2  0
 13 14  1  0
 14 15  1  0
 14 17  1  0
 15 16  2  0
 20 21  1  0
 20 22  1  0
 22 23  1  0
 23 24  1  0
 23 25  1  0
 25 26  2  0
 25 27  1  0
 27 28  1  0
 28 29  1  0
 29 30  1  0
 30 31  1  0
M  END
>  <s_m_entry_id>  (62) 
1112

>  <s_m_entry_name>  (62) 
3dv1.1

>  <s_pdb_PDB_TITLE>  (62) 
CRYSTAL STRUCTURE OF HUMAN BETA-SECRETASE IN COMPLEX WITH NVP-ARV999

>  <s_m_Source_Path>  (62) 
/nfs/zone2/sindhikara/master/src/validation_scripts/tests/prime/macrocycle/BMS208

>  <s_m_Source_File>  (62) 
208refs.maegz

>  <i_m_Source_File_Index>  (62) 
202

>  <s_pdb_PDB_ID>  (62) 
3DV1

>  <r_pdb_PDB_R>  (62) 
0.207

>  <r_pdb_PDB_Rfree>  (62) 
0.241

>  <r_pdb_PDB_RESOLUTION>  (62) 
2.1

>  <s_m_Molecular_formula>  (62) 
C24H45N3O4

>  <r_m_Molecular_weight>  (62) 
439.64395

>  <i_m_Number_of_heavy_atoms>  (62) 
31

>  <i_m_Number_of_atoms>  (62) 
76

>  <s_user_Group>  (62) 
BACE

>  <s_user_Preparation>  (62) 
reference

>  <s_user_Primary_PMID>  (62) 
19195887                                                     

>  <s_user_Primary_DOI>  (62) 
10.1016/J.BMCL.2009.01.055     

>  <s_user_Unique_SMILES>  (62) 
CCCCNC(=O)[C@H](C)C[C@H](O)[C@@H](N1)C[C@H](C)CCCCCCCC(=O)N[C@@H](C)C1=O

>  <s_user_Source>  (62) 
PDB

>  <s_user_InChI1S_Key>  (62) 
InChIKey=ZUIGWVKXPZANDI-MJCUULBUSA-N

>  <s_user_Sample>  (62) 
TEST

>  <s_m_subgroup_title>  (62) 
208refs

>  <s_m_subgroupid>  (62) 
208refs

>  <b_m_subgroup_collapsed>  (62) 
0

$$$$
3DV5
     RDKit          3D

 35 36  0  0  1  0  0  0  0  0999 V2000
   27.3080    6.5180   16.8590 N   0  0  0  0  0  0  0  0  0  0  0  0
   27.3450    5.4120   15.9210 C   0  0  0  0  0  0  0  0  0  0  0  0
   28.4650    5.6510   14.9550 C   0  0  0  0  0  0  0  0  0  0  0  0
   29.7200    5.7230   15.4620 N   0  0  0  0  0  0  0  0  0  0  0  0
   30.8710    5.9170   14.5620 C   0  0  0  0  0  0  0  0  0  0  0  0
   31.8550    6.8270   15.3360 C   0  0  0  0  0  0  0  0  0  0  0  0
   31.1400    8.1530   15.8080 C   0  0  0  0  0  0  0  0  0  0  0  0
   32.2520    9.0140   16.4350 C   0  0  0  0  0  0  0  0  0  0  0  0
   31.7310   10.3030   17.1290 C   0  0  0  0  0  0  0  0  0  0  0  0
   30.7020   10.0510   18.2430 C   0  0  0  0  0  0  0  0  0  0  0  0
   31.2710    9.1130   19.3320 C   0  0  0  0  0  0  0  0  0  0  0  0
   30.3860    9.1930   20.6230 C   0  0  0  0  0  0  0  0  0  0  0  0
   28.8680    8.9940   20.3280 C   0  0  0  0  0  0  0  0  0  0  0  0
   28.6300    7.6050   19.6310 C   0  0  0  0  0  0  0  0  0  0  0  0
   27.1080    7.3890   19.2320 C   0  0  0  0  0  0  0  0  0  0  0  0
   27.0930    6.2370   18.1990 C   0  0  0  0  0  0  0  0  0  0  0  0
   26.8830    5.0960   18.6070 O   0  0  0  0  0  0  0  0  0  0  0  0
   30.4730    8.9090   14.5690 C   0  0  0  0  0  0  0  0  0  0  0  0
   31.5880    4.5730   14.2720 C   0  0  0  0  0  0  0  0  0  0  0  0
   32.8220    4.8200   13.5960 O   0  0  0  0  0  0  0  0  0  0  0  0
   30.7210    3.6020   13.4430 C   0  0  0  0  0  0  0  0  0  0  0  0
   31.4290    2.3110   13.1910 N   0  0  0  0  0  0  0  0  0  0  0  0
   30.7960    1.5220   12.0900 C   0  0  0  0  0  0  0  0  0  0  0  0
   30.7310    2.2940   10.7270 C   0  0  0  0  0  0  0  0  0  0  0  0
   31.8930    2.8580   10.1620 C   0  0  0  0  0  0  0  0  0  0  0  0
   31.8330    3.5250    8.9150 C   0  0  0  0  0  0  0  0  0  0  0  0
   30.6090    3.6510    8.2380 C   0  0  0  0  0  0  0  0  0  0  0  0
   29.4550    3.0950    8.8070 C   0  0  0  0  0  0  0  0  0  0  0  0
   29.4990    2.4210   10.0530 C   0  0  0  0  0  0  0  0  0  0  0  0
   33.0540    4.1100    8.2650 C   0  0  0  0  0  0  0  0  0  0  0  0
   34.0950    2.9830    8.0840 C   0  0  0  0  0  0  0  0  0  0  0  0
   33.6620    5.2340    9.1090 C   0  0  0  0  0  0  0  0  0  0  0  0
   28.2100    5.7650   13.7730 O   0  0  0  0  0  0  0  0  0  0  0  0
   25.9740    5.2100   15.1840 C   0  0  0  0  0  0  0  0  0  0  0  0
   27.4650    7.9260   16.4010 C   0  0  0  0  0  0  0  0  0  0  0  0
  1  2  1  0
  1 16  1  0
  1 35  1  0
  2  3  1  0
  2 34  1  0
  3  4  1  0
  3 33  2  0
  4  5  1  0
  5  6  1  0
  5 19  1  0
  6  7  1  0
  7  8  1  0
  7 18  1  0
  8  9  1  0
  9 10  1  0
 10 11  1  0
 11 12  1  0
 12 13  1  0
 13 14  1  0
 14 15  1  0
 15 16  1  0
 16 17  2  0
 19 20  1  0
 19 21  1  0
 21 22  1  0
 22 23  1  0
 23 24  1  0
 24 25  2  0
 24 29  1  0
 25 26  1  0
 26 27  2  0
 26 30  1  0
 27 28  1  0
 28 29  2  0
 30 31  1  0
 30 32  1  0
M  CHG  1  22   1
M  END
>  <s_m_entry_id>  (63) 
1113

>  <s_m_entry_name>  (63) 
3dv5.1

>  <s_pdb_PDB_TITLE>  (63) 
CRYSTAL STRUCTURE OF HUMAN BETA-SECRETASE IN COMPLEX WITH NVP-BAV544

>  <s_m_Source_Path>  (63) 
/nfs/zone2/sindhikara/master/src/validation_scripts/tests/prime/macrocycle/BMS208

>  <s_m_Source_File>  (63) 
208refs.maegz

>  <i_m_Source_File_Index>  (63) 
203

>  <s_pdb_PDB_ID>  (63) 
3DV5

>  <r_pdb_PDB_R>  (63) 
0.192

>  <r_pdb_PDB_Rfree>  (63) 
0.221

>  <r_pdb_PDB_RESOLUTION>  (63) 
2.1

>  <s_m_Molecular_formula>  (63) 
C29H50N3O3

>  <r_m_Molecular_weight>  (63) 
488.74015

>  <i_m_Number_of_heavy_atoms>  (63) 
35

>  <i_m_Number_of_atoms>  (63) 
85

>  <s_user_Group>  (63) 
BACE

>  <s_user_Preparation>  (63) 
reference

>  <s_user_Primary_PMID>  (63) 
19195887                                                     

>  <s_user_Primary_DOI>  (63) 
10.1016/J.BMCL.2009.01.055     

>  <s_user_Unique_SMILES>  (63) 
CC(C)c1cc(ccc1)C[NH2+]C[C@@H](O)[C@@H](N2)C[C@H](C)CCCCCCCCC(=O)N(C)[C@@H](C)C2=O

>  <s_user_Source>  (63) 
PDB

>  <s_user_InChI1S_Key>  (63) 
InChIKey=LHBBUGLYVFZUTH-GXVHRJHYSA-N

>  <s_user_Sample>  (63) 
TRAIN

>  <s_m_subgroup_title>  (63) 
208refs

>  <s_m_subgroupid>  (63) 
208refs

>  <b_m_subgroup_collapsed>  (63) 
0

$$$$
3E7A_conf1
     RDKit          3D

 59 60  0  0  1  0  0  0  0  0999 V2000
    7.6963   -6.0493   -2.0103 C   0  0  0  0  0  0  0  0  0  0  0  0
    7.5280   -7.1717   -2.5241 O   0  0  0  0  0  0  0  0  0  0  0  0
    8.7508   -5.7954   -1.3974 O   0  0  0  0  0  0  0  0  0  0  0  0
    6.6284   -5.0027   -2.1297 C   0  0  0  0  0  0  0  0  0  0  0  0
    7.3343   -3.7149   -2.1224 N   0  0  0  0  0  0  0  0  0  0  0  0
    5.6801   -5.1756   -0.9998 C   0  0  0  0  0  0  0  0  0  0  0  0
    4.2312   -4.9873   -1.3834 C   0  0  0  0  0  0  0  0  0  0  0  0
    3.7252   -5.7404   -2.2419 O   0  0  0  0  0  0  0  0  0  0  0  0
    5.8016   -6.5823   -0.4935 C   0  0  0  0  0  0  0  0  0  0  0  0
    3.4338   -3.9290   -0.7457 N   0  0  0  0  0  0  0  0  0  0  0  0
    2.0253   -3.7299   -1.1091 C   0  0  0  0  0  0  0  0  0  0  0  0
    1.4240   -2.5212   -0.4335 C   0  0  0  0  0  0  0  0  0  0  0  0
    0.4624   -2.6681    0.3444 O   0  0  0  0  0  0  0  0  0  0  0  0
    1.2399   -4.9477   -0.7217 C   0  0  0  0  0  0  0  0  0  0  0  0
   -0.2009   -4.7516   -1.0900 C   0  0  0  0  0  0  0  0  0  0  0  0
   -0.9862   -5.9695   -0.7027 C   0  0  0  0  0  0  0  0  0  0  0  0
   -0.4579   -7.1338   -1.4075 N   0  0  0  0  0  0  0  0  0  0  0  0
   -0.5409   -8.4570   -0.7961 C   0  0  0  0  0  0  0  0  0  0  0  0
   -1.1393   -8.6849    0.5160 N   0  0  0  0  0  0  0  0  0  0  0  0
   -0.0560   -9.4879   -1.4556 N   0  0  0  0  0  0  0  0  0  0  0  0
   -5.0887    4.7855   -2.4520 C   0  0  0  0  0  0  0  0  0  0  0  0
   -5.6509    3.7735   -1.7008 O   0  0  0  0  0  0  0  0  0  0  0  0
   -4.8842    3.5567   -0.5741 C   0  0  0  0  0  0  0  0  0  0  0  0
   -5.7176    3.7924    0.6507 C   0  0  0  0  0  0  0  0  0  0  0  0
   -6.8842    2.8496    0.6507 C   0  0  0  0  0  0  0  0  0  0  0  0
   -7.8030    2.8809   -0.3917 C   0  0  0  0  0  0  0  0  0  0  0  0
   -8.8840    2.0073   -0.3917 C   0  0  0  0  0  0  0  0  0  0  0  0
   -9.0462    1.1024    0.6507 C   0  0  0  0  0  0  0  0  0  0  0  0
   -8.1274    1.0712    1.6931 C   0  0  0  0  0  0  0  0  0  0  0  0
   -7.0465    1.9447    1.6931 C   0  0  0  0  0  0  0  0  0  0  0  0
   -4.3842    2.1425   -0.5741 C   0  0  0  0  0  0  0  0  0  0  0  0
   -4.8842    1.4354   -1.7988 C   0  0  0  0  0  0  0  0  0  0  0  0
   -2.8842    2.1425   -0.5741 C   0  0  0  0  0  0  0  0  0  0  0  0
   -2.1921    1.1481    0.0000 C   0  0  0  0  0  0  0  0  0  0  0  0
   -2.8925   -0.0006    0.6632 C   0  0  0  0  0  0  0  0  0  0  0  0
   -0.6921    1.1481    0.0000 C   0  0  0  0  0  0  0  0  0  0  0  0
    0.0000    0.0000    0.0000 C   0  0  0  0  0  0  0  0  0  0  0  0
    1.5000    0.0000    0.0000 C   0  0  0  0  0  0  0  0  0  0  0  0
    1.9969   -1.1943   -0.6895 N   0  0  0  0  0  0  0  0  0  0  0  0
    2.0054    0.0799    1.4083 C   0  0  0  0  0  0  0  0  0  0  0  0
    1.3509    1.2469    2.0863 C   0  0  0  0  0  0  0  0  0  0  0  0
    3.5028    0.3055    1.4598 C   0  0  0  0  0  0  0  0  0  0  0  0
    3.9653    1.3715    1.0127 O   0  0  0  0  0  0  0  0  0  0  0  0
    4.3728   -0.7344    2.0206 N   0  0  0  0  0  0  0  0  0  0  0  0
    5.8302   -0.5769    2.0891 C   0  0  0  0  0  0  0  0  0  0  0  0
    6.1982   -1.1970    3.4045 C   0  0  0  0  0  0  0  0  0  0  0  0
    6.2248   -0.4988    4.4359 O   0  0  0  0  0  0  0  0  0  0  0  0
    6.5690   -1.3243    1.0294 C   0  0  0  0  0  0  0  0  0  0  0  0
    7.6484   -0.5592    0.3084 C   0  0  0  0  0  0  0  0  0  0  0  0
    7.0657    0.3623   -0.7223 C   0  0  0  0  0  0  0  0  0  0  0  0
    6.6278    1.4870   -0.3421 O   0  0  0  0  0  0  0  0  0  0  0  0
    6.4770   -2.4097    3.4645 O   0  0  0  0  0  0  0  0  0  0  0  0
    6.9656    0.0252   -2.1455 N   0  0  0  0  0  0  0  0  0  0  0  0
    6.3289    0.9819   -3.0461 C   0  0  0  0  0  0  0  0  0  0  0  0
    7.4996   -1.2147   -2.7157 C   0  0  0  0  0  0  0  0  0  0  0  0
    6.7064   -2.4978   -2.6534 C   0  0  0  0  0  0  0  0  0  0  0  0
    5.5331   -2.5137   -3.0739 O   0  0  0  0  0  0  0  0  0  0  0  0
    8.7075   -1.2017   -3.3208 C   0  0  0  0  0  0  0  0  0  0  0  0
    9.4929    0.0742   -3.3939 C   0  0  0  0  0  0  0  0  0  0  0  0
  1  2  2  0
  1  3  1  0
  1  4  1  0
  4  5  1  0
  4  6  1  0
  5 56  1  0
  6  7  1  0
  6  9  1  0
  7  8  2  0
  7 10  1  0
 10 11  1  0
 11 12  1  0
 11 14  1  0
 12 13  2  0
 12 39  1  0
 14 15  1  0
 15 16  1  0
 16 17  1  0
 17 18  1  0
 18 19  1  0
 18 20  2  0
 21 22  1  0
 22 23  1  0
 23 24  1  0
 23 31  1  0
 24 25  1  0
 25 26  2  0
 25 30  1  0
 26 27  1  0
 27 28  2  0
 28 29  1  0
 29 30  2  0
 31 32  1  0
 31 33  1  0
 33 34  2  0
 34 35  1  0
 34 36  1  0
 36 37  2  0
 37 38  1  0
 38 39  1  0
 38 40  1  0
 40 41  1  0
 40 42  1  0
 42 43  2  0
 42 44  1  0
 44 45  1  0
 45 46  1  0
 45 48  1  0
 46 47  2  0
 46 52  1  0
 48 49  1  0
 49 50  1  0
 50 51  2  0
 50 53  1  0
 53 54  1  0
 53 55  1  0
 55 56  1  0
 55 58  2  0
 56 57  2  0
 58 59  1  0
M  CHG  3   3  -1  20   1  52  -1
M  END
>  <i_m_stars>  (64) 
2

>  <s_m_entry_id>  (64) 
1042

>  <s_m_entry_name>  (64) 
208refs.132

>  <s_m_Source_Path>  (64) 
/nfs/zone2/sindhikara/master/src/validation_scripts/tests/prime/macrocycle/BMS208

>  <s_m_Source_File>  (64) 
208refs.maegz

>  <i_m_Source_File_Index>  (64) 
132

>  <r_lp_tautomer_probability>  (64) 
1

>  <r_epik_Ionization_Penalty>  (64) 
  0.0011

>  <r_epik_Ionization_Penalty_Charging>  (64) 
  0.0011

>  <r_epik_Ionization_Penalty_Neutral>  (64) 
  0.0000

>  <r_epik_State_Penalty>  (64) 
  0.0000

>  <i_epik_Tot_Q>  (64) 
-1

>  <i_lp_mmshare_version>  (64) 
32005

>  <r_pdb_PDB_RESOLUTION>  (64) 
1.63

>  <r_pdb_PDB_EXPDTA_PH>  (64) 
7

>  <s_user_comment>  (64) 
zwitterion - not paired ; 2 occurrences with sim. confs; kept this one as being complete.  .

>  <r_f3d_energy>  (64) 
272.403036383107

>  <s_epik_Chemistry_Notes>  (64) 
This compound has an imine and may undergo hydrolysis.

>  <s_user_Group>  (64) 
B1

>  <s_user_mc_backbone_quality>  (64) 
A

>  <s_user_overall_b-factors>  (64) 
A

>  <s_user_ligand_name>  (64) 
NODULARIN-R

>  <s_m_subgroup_title>  (64) 
208refs

>  <s_m_subgroupid>  (64) 
208refs

>  <b_m_subgroup_collapsed>  (64) 
0

$$$$
3EKS
     RDKit          3D

 37 40  0  0  1  0  0  0  0  0999 V2000
  159.7530  -16.4910   31.3260 C   0  0  0  0  0  0  0  0  0  0  0  0
  157.0340  -14.9310   29.8150 C   0  0  0  0  0  0  0  0  0  0  0  0
  157.5720  -16.2730   30.3190 C   0  0  0  0  0  0  0  0  0  0  0  0
  158.6160  -16.8420   29.3530 C   0  0  0  0  0  0  0  0  0  0  0  0
  160.6910  -16.3750   32.1150 O   0  0  0  0  0  0  0  0  0  0  0  0
  158.1750  -13.9180   29.8910 C   0  0  0  0  0  0  0  0  0  0  0  0
  157.1910  -18.0370   26.6500 C   0  0  0  0  0  0  0  0  0  0  0  0
  156.1200  -18.1900   25.7780 C   0  0  0  0  0  0  0  0  0  0  0  0
  154.9140  -18.7000   26.2460 C   0  0  0  0  0  0  0  0  0  0  0  0
  154.7780  -19.0550   27.5830 C   0  0  0  0  0  0  0  0  0  0  0  0
  155.8490  -18.9020   28.4560 C   0  0  0  0  0  0  0  0  0  0  0  0
  157.0570  -18.3950   27.9880 C   0  0  0  0  0  0  0  0  0  0  0  0
  158.2550  -18.2670   28.9290 C   0  0  0  0  0  0  0  0  0  0  0  0
  159.9060  -16.8640   30.0590 N   0  0  0  0  0  0  0  0  0  0  0  0
  158.3000  -16.1490   31.6630 C   0  0  0  0  0  0  0  0  0  0  0  0
  156.5080  -15.0410   28.3820 C   0  0  0  0  0  0  0  0  0  0  0  0
  158.6530  -13.2530   28.7680 C   0  0  0  0  0  0  0  0  0  0  0  0
  158.8180  -13.7030   31.2600 C   0  0  0  0  0  0  0  0  0  0  0  0
  158.5050  -12.3810   31.7060 O   0  0  0  0  0  0  0  0  0  0  0  0
  158.2280  -14.7270   32.2330 C   0  0  0  0  0  0  0  0  0  0  0  0
  158.9940  -14.5870   33.5520 C   0  0  0  0  0  0  0  0  0  0  0  0
  158.3960  -13.9600   34.6390 C   0  0  0  0  0  0  0  0  0  0  0  0
  159.0790  -13.8060   35.8420 C   0  0  0  0  0  0  0  0  0  0  0  0
  158.8530  -14.9530   36.8280 C   0  0  0  0  0  0  0  0  0  0  0  0
  159.2980  -14.5540   38.2370 C   0  0  0  0  0  0  0  0  0  0  0  0
  159.6250  -16.2010   36.3920 C   0  0  0  0  0  0  0  0  0  0  0  0
  160.8520  -16.1800   36.3050 O   0  0  0  0  0  0  0  0  0  0  0  0
  158.8540  -17.4850   36.0850 C   0  0  0  0  0  0  0  0  0  0  0  0
  159.7870  -18.5200   35.7610 O   0  0  0  0  0  0  0  0  0  0  0  0
  158.0240  -17.8740   37.3100 C   0  0  0  0  0  0  0  0  0  0  0  0
  158.0210  -17.2360   35.0000 C   0  0  0  0  0  0  0  0  0  0  0  0
  158.4930  -17.4350   33.7080 C   0  0  0  0  0  0  0  0  0  0  0  0
  157.6790  -17.1820   32.6090 C   0  0  0  0  0  0  0  0  0  0  0  0
  156.3950  -16.7120   33.0430 O   0  0  0  0  0  0  0  0  0  0  0  0
  155.4260  -17.6380   32.8130 C   0  0  0  0  0  0  0  0  0  0  0  0
  154.1030  -17.3380   33.1180 C   0  0  0  0  0  0  0  0  0  0  0  0
  155.7080  -18.7260   32.3130 O   0  0  0  0  0  0  0  0  0  0  0  0
  1  5  2  0
  1 14  1  0
  1 15  1  0
  2  3  1  0
  2  6  1  0
  2 16  1  0
  3  4  1  0
  3 15  1  0
  4 13  1  0
  4 14  1  0
  6 17  2  0
  6 18  1  0
  7  8  2  0
  7 12  1  0
  8  9  1  0
  9 10  2  0
 10 11  1  0
 11 12  2  0
 12 13  1  0
 15 20  1  0
 15 33  1  0
 18 19  1  0
 18 20  1  0
 20 21  1  0
 21 22  2  0
 22 23  1  0
 23 24  1  0
 24 25  1  0
 24 26  1  0
 26 27  2  0
 26 28  1  0
 28 29  1  0
 28 30  1  0
 28 31  1  0
 31 32  2  0
 32 33  1  0
 33 34  1  0
 34 35  1  0
 35 36  1  0
 35 37  2  0
M  END
>  <s_m_entry_id>  (65) 
1114

>  <s_m_entry_name>  (65) 
3eks.1

>  <s_pdb_PDB_TITLE>  (65) 
CRYSTAL STRUCTURE OF MONOMERIC ACTIN BOUND TO CYTOCHALASIN D

>  <s_m_Source_Path>  (65) 
/nfs/zone2/sindhikara/master/src/validation_scripts/tests/prime/macrocycle/BMS208

>  <s_m_Source_File>  (65) 
208refs.maegz

>  <i_m_Source_File_Index>  (65) 
204

>  <s_pdb_PDB_ID>  (65) 
3EKS

>  <r_pdb_PDB_R>  (65) 
0.237

>  <r_pdb_PDB_Rfree>  (65) 
0.284

>  <r_pdb_PDB_RESOLUTION>  (65) 
1.8

>  <s_m_Molecular_formula>  (65) 
C30H37N1O6

>  <r_m_Molecular_weight>  (65) 
507.63249

>  <i_m_Number_of_heavy_atoms>  (65) 
37

>  <i_m_Number_of_atoms>  (65) 
74

>  <s_user_Group>  (65) 
Example PDB

>  <s_user_Preparation>  (65) 
reference

>  <s_user_Primary_PMID>  (65) 
18938176                                                     

>  <s_user_Primary_DOI>  (65) 
10.1016/J.JMB.2008.09.082     

>  <s_user_Unique_SMILES>  (65) 
CC(=O)O[C@@H]1\C=C\[C@@](C)(O)C(=O)[C@@H](C)C\C=C\[C@H]2[C@H](O)C(=C)[C@@H](C)[C@H]([C@]123)[C@@H](NC3=O)Cc4ccccc4

>  <s_user_Source>  (65) 
PDB

>  <s_user_InChI1S_Key>  (65) 
InChIKey=SDZRWUKZFQQKKV-JHADDHBZSA-N

>  <s_user_Sample>  (65) 
TEST

>  <s_user_Name>  (65) 
Cytochalasin D

>  <s_m_subgroup_title>  (65) 
208refs

>  <s_m_subgroupid>  (65) 
208refs

>  <b_m_subgroup_collapsed>  (65) 
0

$$$$
3I6O
     RDKit          3D

 44 48  0  0  1  0  0  0  0  0999 V2000
   12.6140   57.7911   48.4110 C   0  0  0  0  0  0  0  0  0  0  0  0
   12.6040   58.0181   47.0390 C   0  0  0  0  0  0  0  0  0  0  0  0
   13.6240   58.7921   46.4740 C   0  0  0  0  0  0  0  0  0  0  0  0
   14.6280   59.3211   47.2850 C   0  0  0  0  0  0  0  0  0  0  0  0
   14.6250   59.0831   48.6640 C   0  0  0  0  0  0  0  0  0  0  0  0
   13.6220   58.3221   49.2260 C   0  0  0  0  0  0  0  0  0  0  0  0
   16.0690   60.1831   46.6390 S   0  0  0  0  0  0  0  0  0  0  0  0
   16.9840   60.2931   47.7430 O   0  0  0  0  0  0  0  0  0  0  0  0
   16.4810   59.4801   45.4200 O   0  0  0  0  0  0  0  0  0  0  0  0
   15.6350   61.7351   46.1600 N   0  0  0  0  0  0  0  0  0  0  0  0
   15.1130   61.9491   44.8140 C   0  0  0  0  0  0  0  0  0  0  0  0
   16.2110   62.1111   43.7480 C   0  0  0  0  0  0  0  0  0  0  0  0
   15.7100   62.6981   42.4100 C   0  0  0  0  0  0  0  0  0  0  0  0
   14.7470   61.8381   41.5790 C   0  0  0  0  0  0  0  0  0  0  0  0
   15.5050   62.7351   47.2300 C   0  0  0  0  0  0  0  0  0  0  0  0
   16.4870   63.8761   46.8820 C   0  0  0  0  0  0  0  0  0  0  0  0
   16.1010   65.0121   47.6670 O   0  0  0  0  0  0  0  0  0  0  0  0
   17.9670   63.5201   47.1050 C   0  0  0  0  0  0  0  0  0  0  0  0
   18.7940   64.6181   46.5520 N   0  0  0  0  0  0  0  0  0  0  0  0
   19.4990   64.4111   45.4080 C   0  0  0  0  0  0  0  0  0  0  0  0
   19.6530   63.3651   44.7990 O   0  0  0  0  0  0  0  0  0  0  0  0
   20.0270   65.6001   45.0350 O   0  0  0  0  0  0  0  0  0  0  0  0
   21.0350   65.6001   43.9940 C   0  0  0  0  0  0  0  0  0  0  0  0
   20.7550   66.8901   43.2080 C   0  0  0  0  0  0  0  0  0  0  0  0
   21.2710   67.9531   43.9940 O   0  0  0  0  0  0  0  0  0  0  0  0
   22.4340   67.5061   44.7020 C   0  0  0  0  0  0  0  0  0  0  0  0
   22.3050   67.8561   46.0510 O   0  0  0  0  0  0  0  0  0  0  0  0
   22.1120   66.7071   46.8990 C   0  0  0  0  0  0  0  0  0  0  0  0
   22.6480   65.5411   46.0830 C   0  0  0  0  0  0  0  0  0  0  0  0
   22.4160   65.9581   44.6130 C   0  0  0  0  0  0  0  0  0  0  0  0
   18.3070   63.4071   48.6330 C   0  0  0  0  0  0  0  0  0  0  0  0
   20.6110   64.2021   49.3000 C   0  0  0  0  0  0  0  0  0  0  0  0
   21.9890   64.0371   49.4100 C   0  0  0  0  0  0  0  0  0  0  0  0
   22.5610   62.8381   48.9480 C   0  0  0  0  0  0  0  0  0  0  0  0
   21.7710   61.8261   48.3870 C   0  0  0  0  0  0  0  0  0  0  0  0
   20.3980   62.0051   48.2840 C   0  0  0  0  0  0  0  0  0  0  0  0
   19.8090   63.1961   48.7410 C   0  0  0  0  0  0  0  0  0  0  0  0
   11.6540   57.0501   49.0210 O   0  0  0  0  0  0  0  0  0  0  0  0
   10.8500   56.2351   48.1710 C   0  0  0  0  0  0  0  0  0  0  0  0
   13.6650   59.0501   45.1200 O   0  0  0  0  0  0  0  0  0  0  0  0
   12.5980   58.5391   44.2980 C   0  0  0  0  0  0  0  0  0  0  0  0
   12.8740   58.6851   42.8110 C   0  0  0  0  0  0  0  0  0  0  0  0
   13.1700   60.1061   42.4340 C   0  0  0  0  0  0  0  0  0  0  0  0
   14.3940   60.4391   41.9700 C   0  0  0  0  0  0  0  0  0  0  0  0
  1  2  2  0
  1  6  1  0
  1 38  1  0
  2  3  1  0
  3  4  2  0
  3 40  1  0
  4  5  1  0
  4  7  1  0
  5  6  2  0
  7  8  2  0
  7  9  2  0
  7 10  1  0
 10 11  1  0
 10 15  1  0
 11 12  1  0
 12 13  1  0
 13 14  1  0
 14 44  1  0
 15 16  1  0
 16 17  1  0
 16 18  1  0
 18 19  1  0
 18 31  1  0
 19 20  1  0
 20 21  2  0
 20 22  1  0
 22 23  1  0
 23 24  1  0
 23 30  1  0
 24 25  1  0
 25 26  1  0
 26 27  1  0
 26 30  1  0
 27 28  1  0
 28 29  1  0
 29 30  1  0
 31 37  1  0
 32 33  2  0
 32 37  1  0
 33 34  1  0
 34 35  2  0
 35 36  1  0
 36 37  2  0
 38 39  1  0
 40 41  1  0
 41 42  1  0
 42 43  1  0
 43 44  2  0
M  END
>  <s_m_entry_id>  (66) 
1115

>  <s_m_entry_name>  (66) 
3i6o.1

>  <s_pdb_PDB_TITLE>  (66) 
CRYSTAL STRUCTURE OF WILD TYPE HIV-1 PROTEASE WITH MACROCYCLIC INHIBITOR GRL-0216A

>  <s_m_Source_Path>  (66) 
/nfs/zone2/sindhikara/master/src/validation_scripts/tests/prime/macrocycle/BMS208

>  <s_m_Source_File>  (66) 
208refs.maegz

>  <i_m_Source_File_Index>  (66) 
205

>  <s_pdb_PDB_ID>  (66) 
3I6O

>  <r_pdb_PDB_R>  (66) 
0.159

>  <r_pdb_PDB_Rfree>  (66) 
0.196

>  <r_pdb_PDB_RESOLUTION>  (66) 
1.17

>  <s_m_Molecular_formula>  (66) 
C32H42N2O9S1

>  <r_m_Molecular_weight>  (66) 
630.76354

>  <i_m_Number_of_heavy_atoms>  (66) 
44

>  <i_m_Number_of_atoms>  (66) 
86

>  <s_user_Group>  (66) 
Example PDB

>  <s_user_Preparation>  (66) 
reference

>  <s_user_Primary_PMID>  (66) 
19746963                                                     

>  <s_user_Primary_DOI>  (66) 
10.1021/JM900695W      

>  <s_user_Unique_SMILES>  (66) 
C1CO[C@@H]([C@@H]12)OC[C@@H]2OC(=O)N[C@@H](Cc3ccccc3)[C@H](O)CN(S(=O)(=O)c(c45)ccc(c4)OC)CCCC/C=C/CCO5

>  <s_user_Source>  (66) 
PDB

>  <s_user_InChI1S_Key>  (66) 
InChIKey=ZQJBDIZBNGQJDT-JZAADHNPSA-N

>  <s_user_Sample>  (66) 
TEST

>  <s_m_subgroup_title>  (66) 
208refs

>  <s_m_subgroupid>  (66) 
208refs

>  <b_m_subgroup_collapsed>  (66) 
0

$$$$
3K5C
     RDKit          3D

 42 46  0  0  1  0  0  0  0  0999 V2000
   30.3240    6.1340   15.4260 N   0  0  0  0  0  0  0  0  0  0  0  0
   31.5350    6.2000   14.6000 C   0  0  0  0  0  0  0  0  0  0  0  0
   32.5990    7.0850   15.3410 C   0  0  0  0  0  0  0  0  0  0  0  0
   31.9990    8.4280   15.7910 C   0  0  0  0  0  0  0  0  0  0  0  0
   31.6290    8.6180   17.1450 C   0  0  0  0  0  0  0  0  0  0  0  0
   31.0670    9.8490   17.5730 C   0  0  0  0  0  0  0  0  0  0  0  0
   30.8750   10.8930   16.6320 C   0  0  0  0  0  0  0  0  0  0  0  0
   31.2430   10.7040   15.2840 C   0  0  0  0  0  0  0  0  0  0  0  0
   31.8050    9.4800   14.8580 C   0  0  0  0  0  0  0  0  0  0  0  0
   30.6920   10.0740   18.8970 O   0  0  0  0  0  0  0  0  0  0  0  0
   31.0670    9.2520   20.0160 C   0  0  0  0  0  0  0  0  0  0  0  0
   29.9070    9.1350   21.0350 C   0  0  0  0  0  0  0  0  0  0  0  0
   28.5720    8.6240   20.4400 C   0  0  0  0  0  0  0  0  0  0  0  0
   28.5740    7.0780   20.3360 C   0  0  0  0  0  0  0  0  0  0  0  0
   27.3260    6.6510   19.7040 N   0  0  0  0  0  0  0  0  0  0  0  0
   27.1260    6.5070   18.3630 C   0  0  0  0  0  0  0  0  0  0  0  0
   28.1760    6.5270   17.4020 C   0  0  0  0  0  0  0  0  0  0  0  0
   27.9010    6.3650   16.0240 C   0  0  0  0  0  0  0  0  0  0  0  0
   26.5620    6.1840   15.5900 C   0  0  0  0  0  0  0  0  0  0  0  0
   25.5060    6.1630   16.5320 C   0  0  0  0  0  0  0  0  0  0  0  0
   25.7970    6.3240   17.9110 C   0  0  0  0  0  0  0  0  0  0  0  0
   24.0580    5.9660   16.0590 C   0  0  0  0  0  0  0  0  0  0  0  0
   23.8000    4.5450   16.0490 O   0  0  0  0  0  0  0  0  0  0  0  0
   22.8490    4.1140   17.0520 C   0  0  0  0  0  0  0  0  0  0  0  0
   29.0430    6.3860   15.0350 C   0  0  0  0  0  0  0  0  0  0  0  0
   28.7720    6.6410   13.8680 O   0  0  0  0  0  0  0  0  0  0  0  0
   32.0520    4.7610   14.3420 C   0  0  0  0  0  0  0  0  0  0  0  0
   33.1810    4.7900   13.4590 O   0  0  0  0  0  0  0  0  0  0  0  0
   30.9820    3.8940   13.6320 C   0  0  0  0  0  0  0  0  0  0  0  0
   31.5390    2.6060   13.1720 N   0  0  0  0  0  0  0  0  0  0  0  0
   30.7230    2.0080   12.1030 C   0  0  0  0  0  0  0  0  0  0  0  0
   30.8500    0.4730   12.0100 C   0  0  0  0  0  0  0  0  0  0  0  0
   29.5460    1.1030   12.5430 C   0  0  0  0  0  0  0  0  0  0  0  0
   30.6640    2.7160   10.7430 C   0  0  0  0  0  0  0  0  0  0  0  0
   31.8650    2.9700   10.0440 C   0  0  0  0  0  0  0  0  0  0  0  0
   31.8490    3.6230    8.7830 C   0  0  0  0  0  0  0  0  0  0  0  0
   30.6010    4.0190    8.2390 C   0  0  0  0  0  0  0  0  0  0  0  0
   29.3930    3.7720    8.9320 C   0  0  0  0  0  0  0  0  0  0  0  0
   29.4240    3.1210   10.1850 C   0  0  0  0  0  0  0  0  0  0  0  0
   33.1790    3.8790    8.0490 C   0  0  0  0  0  0  0  0  0  0  0  0
   33.7770    5.2540    8.4540 C   0  0  0  0  0  0  0  0  0  0  0  0
   34.2290    2.7360    8.1420 C   0  0  0  0  0  0  0  0  0  0  0  0
  1  2  1  0
  1 25  1  0
  2  3  1  0
  2 27  1  0
  3  4  1  0
  4  5  1  0
  4  9  2  0
  5  6  2  0
  6  7  1  0
  6 10  1  0
  7  8  2  0
  8  9  1  0
 10 11  1  0
 11 12  1  0
 12 13  1  0
 13 14  1  0
 14 15  1  0
 15 16  1  0
 16 17  1  0
 16 21  2  0
 17 18  2  0
 18 19  1  0
 18 25  1  0
 19 20  2  0
 20 21  1  0
 20 22  1  0
 22 23  1  0
 23 24  1  0
 25 26  2  0
 27 28  1  0
 27 29  1  0
 29 30  1  0
 30 31  1  0
 31 32  1  0
 31 33  1  0
 31 34  1  0
 32 33  1  0
 34 35  2  0
 34 39  1  0
 35 36  1  0
 36 37  2  0
 36 40  1  0
 37 38  1  0
 38 39  2  0
 40 41  1  0
 40 42  1  0
M  CHG  1  30   1
M  END
>  <s_m_entry_id>  (67) 
1116

>  <s_m_entry_name>  (67) 
3k5c.1

>  <s_pdb_PDB_TITLE>  (67) 
HUMAN BACE-1 COMPLEX WITH NB-216

>  <s_m_Source_Path>  (67) 
/nfs/zone2/sindhikara/master/src/validation_scripts/tests/prime/macrocycle/BMS208

>  <s_m_Source_File>  (67) 
208refs.maegz

>  <i_m_Source_File_Index>  (67) 
206

>  <s_pdb_PDB_ID>  (67) 
3K5C

>  <r_pdb_PDB_R>  (67) 
0.2

>  <r_pdb_PDB_Rfree>  (67) 
0.22

>  <r_pdb_PDB_RESOLUTION>  (67) 
2.12

>  <s_m_Molecular_formula>  (67) 
C35H46N3O4

>  <r_m_Molecular_weight>  (67) 
572.77457

>  <i_m_Number_of_heavy_atoms>  (67) 
42

>  <i_m_Number_of_atoms>  (67) 
88

>  <s_user_Group>  (67) 
BACE

>  <s_user_Preparation>  (67) 
reference

>  <s_user_Primary_PMID>  (67) 
19963375                                                     

>  <s_user_Primary_DOI>  (67) 
10.1016/J.BMCL.2009.11.092     

>  <s_user_Unique_SMILES>  (67) 
CC(C)c1cc(ccc1)C2(CC2)[NH2+]C[C@@H](O)[C@@H](NC3=O)Cc(ccc4)cc4OCCCCNc(c5)cc(cc35)COC

>  <s_user_Source>  (67) 
PDB

>  <s_user_InChI1S_Key>  (67) 
InChIKey=GCZHKZTYTMTFGU-JHOUSYSJSA-N

>  <s_user_Sample>  (67) 
TEST

>  <s_m_subgroup_title>  (67) 
208refs

>  <s_m_subgroupid>  (67) 
208refs

>  <b_m_subgroup_collapsed>  (67) 
0

$$$$
3KEE
     RDKit          3D

 52 58  0  0  1  0  0  0  0  0999 V2000
   16.0134   60.1187   44.7557 C   0  0  0  0  0  0  0  0  0  0  0  0
   17.5324   60.1497   44.6587 C   0  0  0  0  0  0  0  0  0  0  0  0
   17.9144   61.5347   45.1837 C   0  0  0  0  0  0  0  0  0  0  0  0
   16.9814   61.7137   46.3937 C   0  0  0  0  0  0  0  0  0  0  0  0
   15.6424   61.1747   45.8177 C   0  0  0  0  0  0  0  0  0  0  0  0
   19.4464   61.7837   45.1317 C   0  0  0  0  0  0  0  0  0  0  0  0
   20.2584   60.9477   45.4557 O   0  0  0  0  0  0  0  0  0  0  0  0
   19.8274   62.9467   44.5987 N   0  0  0  0  0  0  0  0  0  0  0  0
   18.0894   59.8207   43.2427 C   0  0  0  0  0  0  0  0  0  0  0  0
   18.2414   60.7227   42.4187 O   0  0  0  0  0  0  0  0  0  0  0  0
   21.3934   62.7107   42.8767 C   0  0  0  0  0  0  0  0  0  0  0  0
   22.3854   63.4277   45.2307 C   0  0  0  0  0  0  0  0  0  0  0  0
   18.4294   58.5107   43.0017 N   0  0  0  0  0  0  0  0  0  0  0  0
   18.9954   58.0307   41.7137 C   0  0  0  0  0  0  0  0  0  0  0  0
   18.2264   57.4597   44.0127 C   0  0  0  0  0  0  0  0  0  0  0  0
   21.1784   63.3947   44.2517 C   0  0  0  0  0  0  0  0  0  0  0  0
   21.3414   64.2157   42.9727 C   0  0  0  0  0  0  0  0  0  0  0  0
   22.7894   62.1647   42.5457 C   0  0  0  0  0  0  0  0  0  0  0  0
   20.5084   57.7747   41.9117 C   0  0  0  0  0  0  0  0  0  0  0  0
   21.3684   58.9227   42.4687 C   0  0  0  0  0  0  0  0  0  0  0  0
   21.6864   60.0797   41.5027 C   0  0  0  0  0  0  0  0  0  0  0  0
   22.8924   60.9617   41.9207 C   0  0  0  0  0  0  0  0  0  0  0  0
   14.8014   62.1887   45.1947 O   0  0  0  0  0  0  0  0  0  0  0  0
   11.1604   65.3837   43.9467 C   0  0  0  0  0  0  0  0  0  0  0  0
   12.0284   64.6027   43.1667 C   0  0  0  0  0  0  0  0  0  0  0  0
   12.9514   63.8087   43.8667 C   0  0  0  0  0  0  0  0  0  0  0  0
   12.9954   63.7907   45.2867 C   0  0  0  0  0  0  0  0  0  0  0  0
   12.1124   64.5727   46.0347 C   0  0  0  0  0  0  0  0  0  0  0  0
   11.1874   65.3847   45.3497 C   0  0  0  0  0  0  0  0  0  0  0  0
   13.9264   62.9867   45.9427 C   0  0  0  0  0  0  0  0  0  0  0  0
   13.9494   62.9877   47.3287 C   0  0  0  0  0  0  0  0  0  0  0  0
   13.0634   63.8107   48.0157 C   0  0  0  0  0  0  0  0  0  0  0  0
   12.1584   64.5687   47.3927 N   0  0  0  0  0  0  0  0  0  0  0  0
   13.0484   63.7317   49.4917 C   0  0  0  0  0  0  0  0  0  0  0  0
   12.0984   64.9417   50.3757 S   0  0  0  0  0  0  0  0  0  0  0  0
   12.4144   64.2057   51.9477 C   0  0  0  0  0  0  0  0  0  0  0  0
   13.2224   63.1037   51.6457 C   0  0  0  0  0  0  0  0  0  0  0  0
   13.5314   62.8297   50.3347 N   0  0  0  0  0  0  0  0  0  0  0  0
   13.5284   62.3847   52.8997 C   0  0  0  0  0  0  0  0  0  0  0  0
   14.9164   61.7917   52.9277 C   0  0  0  0  0  0  0  0  0  0  0  0
   12.5094   61.2487   52.9737 C   0  0  0  0  0  0  0  0  0  0  0  0
   10.2244   66.1957   43.3077 O   0  0  0  0  0  0  0  0  0  0  0  0
   10.2084   66.2227   41.8877 C   0  0  0  0  0  0  0  0  0  0  0  0
   10.2074   66.2317   46.1467 C   0  0  0  0  0  0  0  0  0  0  0  0
   22.1414   63.4087   46.5297 N   0  0  0  0  0  0  0  0  0  0  0  0
   23.5424   63.5037   44.8567 O   0  0  0  0  0  0  0  0  0  0  0  0
   23.2784   63.4517   47.5557 S   0  0  0  0  0  0  0  0  0  0  0  0
   22.5474   63.2307   49.0607 C   0  0  0  0  0  0  0  0  0  0  0  0
   24.2734   62.4277   47.3457 O   0  0  0  0  0  0  0  0  0  0  0  0
   23.8254   64.7637   47.4447 O   0  0  0  0  0  0  0  0  0  0  0  0
   22.2184   64.5377   49.7657 C   0  0  0  0  0  0  0  0  0  0  0  0
   23.4354   63.7417   50.1957 C   0  0  0  0  0  0  0  0  0  0  0  0
  1  2  1  0
  1  5  1  0
  2  3  1  0
  2  9  1  0
  3  4  1  0
  3  6  1  0
  4  5  1  0
  5 23  1  0
  6  7  2  0
  6  8  1  0
  8 16  1  0
  9 10  2  0
  9 13  1  0
 11 16  1  0
 11 17  1  0
 11 18  1  0
 12 16  1  0
 12 45  1  0
 12 46  2  0
 13 14  1  0
 13 15  1  0
 14 19  1  0
 16 17  1  0
 18 22  2  0
 19 20  1  0
 20 21  1  0
 21 22  1  0
 23 30  1  0
 24 25  2  0
 24 29  1  0
 24 42  1  0
 25 26  1  0
 26 27  2  0
 27 28  1  0
 27 30  1  0
 28 29  2  0
 28 33  1  0
 29 44  1  0
 30 31  2  0
 31 32  1  0
 32 33  2  0
 32 34  1  0
 34 35  1  0
 34 38  2  0
 35 36  1  0
 36 37  2  0
 37 38  1  0
 37 39  1  0
 39 40  1  0
 39 41  1  0
 42 43  1  0
 45 47  1  0
 47 48  1  0
 47 49  2  0
 47 50  2  0
 48 51  1  0
 48 52  1  0
 51 52  1  0
M  END
>  <s_m_entry_id>  (68) 
1117

>  <s_m_entry_name>  (68) 
3kee.1

>  <s_pdb_PDB_TITLE>  (68) 
HCV NS3/NS4A COMPLEXED WITH NON-COVALENT MACROCYCLIC COMPOUND TMC435

>  <s_m_Source_Path>  (68) 
/nfs/zone2/sindhikara/master/src/validation_scripts/tests/prime/macrocycle/BMS208

>  <s_m_Source_File>  (68) 
208refs.maegz

>  <i_m_Source_File_Index>  (68) 
207

>  <s_pdb_PDB_ID>  (68) 
3KEE

>  <r_pdb_PDB_R>  (68) 
0.196

>  <r_pdb_PDB_Rfree>  (68) 
0.246

>  <r_pdb_PDB_RESOLUTION>  (68) 
2.4

>  <s_m_Molecular_formula>  (68) 
C38H46N5O7S2

>  <r_m_Molecular_weight>  (68) 
748.94762

>  <i_m_Number_of_heavy_atoms>  (68) 
52

>  <i_m_Number_of_atoms>  (68) 
98

>  <s_user_Group>  (68) 
Example PDB

>  <s_user_Preparation>  (68) 
reference

>  <s_user_Primary_PMID>  (68) 
20166108                                                     

>  <s_user_Primary_DOI>  (68) 
10.1002/ANIE.200906696     

>  <s_user_Unique_SMILES>  (68) 
C1CC1S(=O)(=O)NC(=O)[C@]23[C@@H](C2)/C=C\CCCCN(C)C(=O)[C@H]4[C@H](C(=O)N3)C[C@H](C4)Oc5cc(-c(n6)scc6C(C)C)nc(c57)c(C)c(cc7)OC

>  <s_user_Source>  (68) 
PDB

>  <s_user_InChI1S_Key>  (68) 
InChIKey=JTZZSQYMACOLNN-VDWJNHBNSA-N

>  <s_user_Sample>  (68) 
TEST

>  <s_m_subgroup_title>  (68) 
208refs

>  <s_m_subgroupid>  (68) 
208refs

>  <b_m_subgroup_collapsed>  (68) 
0

$$$$
3M6G
     RDKit          3D

 54 57  0  0  1  0  0  0  0  0999 V2000
   19.6109   62.5411   46.0239 C   0  0  0  0  0  0  0  0  0  0  0  0
   18.2849   62.2581   45.7739 O   0  0  0  0  0  0  0  0  0  0  0  0
   19.8409   63.7531   46.6489 C   0  0  0  0  0  0  0  0  0  0  0  0
   20.5889   61.8571   45.7459 O   0  0  0  0  0  0  0  0  0  0  0  0
   19.0459   64.4161   47.3649 C   0  0  0  0  0  0  0  0  0  0  0  0
   17.0299   68.0681   48.5729 O   0  0  0  0  0  0  0  0  0  0  0  0
   18.7299   65.5531   48.1319 C   0  0  0  0  0  0  0  0  0  0  0  0
   15.7039   68.3091   50.6669 O   0  0  0  0  0  0  0  0  0  0  0  0
   17.6589   66.0421   48.7859 C   0  0  0  0  0  0  0  0  0  0  0  0
   14.1749   65.4061   51.9389 O   0  0  0  0  0  0  0  0  0  0  0  0
   17.1199   67.1471   49.5529 C   0  0  0  0  0  0  0  0  0  0  0  0
   12.6199   63.0111   49.0749 O   0  0  0  0  0  0  0  0  0  0  0  0
   16.0999   66.9811   50.5169 C   0  0  0  0  0  0  0  0  0  0  0  0
   16.4149   62.5641   49.0039 O   0  0  0  0  0  0  0  0  0  0  0  0
   16.4249   66.4531   51.8049 C   0  0  0  0  0  0  0  0  0  0  0  0
   17.9039   59.0341   47.5519 O   0  0  0  0  0  0  0  0  0  0  0  0
   15.2489   66.2431   52.5209 C   0  0  0  0  0  0  0  0  0  0  0  0
   20.1289   60.6741   43.4829 O   0  0  0  0  0  0  0  0  0  0  0  0
   15.4539   65.9401   53.9589 C   0  0  0  0  0  0  0  0  0  0  0  0
   19.1429   57.9261   38.8969 O   0  0  0  0  0  0  0  0  0  0  0  0
   14.8149   64.9501   54.6299 C   0  0  0  0  0  0  0  0  0  0  0  0
   18.4399   59.5341   35.1069 O   0  0  0  0  0  0  0  0  0  0  0  0
   13.9279   63.9571   53.9639 C   0  0  0  0  0  0  0  0  0  0  0  0
   14.1349   63.9551   52.4529 C   0  0  0  0  0  0  0  0  0  0  0  0
   14.9479   60.9651   51.3469 O   0  0  0  0  0  0  0  0  0  0  0  0
   13.1989   63.2921   51.5919 C   0  0  0  0  0  0  0  0  0  0  0  0
   13.5839   62.9031   50.1609 C   0  0  0  0  0  0  0  0  0  0  0  0
   14.4519   61.5411   50.0559 C   0  0  0  0  0  0  0  0  0  0  0  0
   15.4289   61.5211   48.9569 C   0  0  0  0  0  0  0  0  0  0  0  0
   16.1069   60.3041   48.5789 C   0  0  0  0  0  0  0  0  0  0  0  0
   17.0779   60.2301   47.4399 C   0  0  0  0  0  0  0  0  0  0  0  0
   16.7009   60.4601   46.0299 C   0  0  0  0  0  0  0  0  0  0  0  0
   17.9359   60.9941   45.2489 C   0  0  0  0  0  0  0  0  0  0  0  0
   17.8059   61.1071   43.6989 C   0  0  0  0  0  0  0  0  0  0  0  0
   19.0569   61.3991   42.9449 C   0  0  0  0  0  0  0  0  0  0  0  0
   19.1049   61.4591   41.3939 C   0  0  0  0  0  0  0  0  0  0  0  0
   18.7429   60.0891   40.7519 C   0  0  0  0  0  0  0  0  0  0  0  0
   18.3879   60.0031   39.4269 C   0  0  0  0  0  0  0  0  0  0  0  0
   17.9519   58.6131   38.7749 C   0  0  0  0  0  0  0  0  0  0  0  0
   17.5369   58.6371   37.2669 C   0  0  0  0  0  0  0  0  0  0  0  0
   18.6689   58.9381   36.4669 C   0  0  0  0  0  0  0  0  0  0  0  0
   19.8529   58.1541   36.5359 C   0  0  0  0  0  0  0  0  0  0  0  0
   20.2409   58.1741   37.9989 C   0  0  0  0  0  0  0  0  0  0  0  0
   19.8839   66.4611   48.1869 C   0  0  0  0  0  0  0  0  0  0  0  0
   14.5469   68.8341   50.2149 C   0  0  0  0  0  0  0  0  0  0  0  0
   12.1589   64.3901   48.7529 C   0  0  0  0  0  0  0  0  0  0  0  0
   13.6769   60.1931   50.4369 C   0  0  0  0  0  0  0  0  0  0  0  0
   17.4339   62.5371   50.0309 C   0  0  0  0  0  0  0  0  0  0  0  0
   19.0239   58.6721   48.3989 C   0  0  0  0  0  0  0  0  0  0  0  0
   16.0699   59.1251   45.5019 C   0  0  0  0  0  0  0  0  0  0  0  0
   16.7199   62.0621   43.4069 C   0  0  0  0  0  0  0  0  0  0  0  0
   20.3969   62.1531   40.6949 C   0  0  0  0  0  0  0  0  0  0  0  0
   19.3879   60.0811   34.1349 C   0  0  0  0  0  0  0  0  0  0  0  0
   21.2899   57.1081   38.2709 C   0  0  0  0  0  0  0  0  0  0  0  0
  1  2  1  0
  1  3  1  0
  1  4  2  0
  2 33  1  0
  3  5  2  0
  5  7  1  0
  6 11  1  0
  7  9  2  0
  7 44  1  0
  8 13  1  0
  8 45  1  0
  9 11  1  0
 10 17  1  0
 10 24  1  0
 11 13  1  0
 12 27  1  0
 12 46  1  0
 13 15  1  0
 14 29  1  0
 14 48  1  0
 15 17  1  0
 16 31  1  0
 16 49  1  0
 17 19  1  0
 18 35  1  0
 19 21  2  0
 20 39  1  0
 20 43  1  0
 21 23  1  0
 22 41  1  0
 22 53  1  0
 23 24  1  0
 24 26  1  0
 25 28  1  0
 25 47  1  0
 26 27  1  0
 27 28  1  0
 28 29  1  0
 28 47  1  0
 29 30  1  0
 30 31  1  0
 31 32  1  0
 32 33  1  0
 32 50  1  0
 33 34  1  0
 34 35  1  0
 34 51  1  0
 35 36  1  0
 36 37  1  0
 36 52  1  0
 37 38  2  0
 38 39  1  0
 39 40  1  0
 40 41  1  0
 41 42  1  0
 42 43  1  0
 43 54  1  0
M  END
>  <s_m_entry_id>  (69) 
1118

>  <s_m_entry_name>  (69) 
3m6g.1

>  <s_pdb_PDB_TITLE>  (69) 
CRYSTAL STRUCTURE OF ACTIN IN COMPLEX WITH LOBOPHOROLIDE

>  <s_m_Source_Path>  (69) 
/nfs/zone2/sindhikara/master/src/validation_scripts/tests/prime/macrocycle/BMS208

>  <s_m_Source_File>  (69) 
208refs.maegz

>  <i_m_Source_File_Index>  (69) 
208

>  <s_pdb_PDB_ID>  (69) 
3M6G

>  <r_pdb_PDB_R>  (69) 
0.183

>  <r_pdb_PDB_Rfree>  (69) 
0.227

>  <r_pdb_PDB_RESOLUTION>  (69) 
2

>  <s_m_Molecular_formula>  (69) 
C42H68O12

>  <r_m_Molecular_weight>  (69) 
765.00306

>  <i_m_Number_of_heavy_atoms>  (69) 
54

>  <i_m_Number_of_atoms>  (69) 
122

>  <s_user_Group>  (69) 
Example PDB

>  <s_user_Preparation>  (69) 
reference

>  <s_user_Unique_SMILES>  (69) 
C[C@H](O1)C[C@@H](OC)C[C@@H]1\C=C\[C@H](C)[C@H](O)[C@H](C)[C@H]([C@@H](C)[C@H](OC)C[C@@H]2OC)OC(=O)\C=C\C(\C)=C\[C@@H](O)[C@H](OC)C[C@@H](O3)C=CC[C@H]3C[C@@H]([C@@]24CO4)OC

>  <s_user_Source>  (69) 
PDB

>  <s_user_InChI1S_Key>  (69) 
InChIKey=HRDOFKYIKCYLHK-HNBROGRFSA-N

>  <s_user_Sample>  (69) 
TRAIN

>  <s_user_Name>  (69) 
lobophorolide

>  <s_m_subgroup_title>  (69) 
208refs

>  <s_m_subgroupid>  (69) 
208refs

>  <b_m_subgroup_collapsed>  (69) 
0

$$$$
3RQD-D_conf1
     RDKit          3D

 32 34  0  0  1  0  0  0  0  0999 V2000
    1.9833    0.3654    1.3473 C   0  0  0  0  0  0  0  0  0  0  0  0
   -2.6913    2.3731   -0.7071 C   0  0  0  0  0  0  0  0  0  0  0  0
   -2.1913    1.1483    0.0000 C   0  0  0  0  0  0  0  0  0  0  0  0
   -0.6913    1.1483   -0.0000 C   0  0  0  0  0  0  0  0  0  0  0  0
    0.0000    0.0000    0.0000 C   0  0  0  0  0  0  0  0  0  0  0  0
    1.5000    0.0000    0.0000 C   0  0  0  0  0  0  0  0  0  0  0  0
    2.2952    1.7896    1.7129 C   0  0  0  0  0  0  0  0  0  0  0  0
    1.9709    0.6327   -1.0959 O   0  0  0  0  0  0  0  0  0  0  0  0
    1.6146    2.7102    1.2358 O   0  0  0  0  0  0  0  0  0  0  0  0
   -4.4713    2.3731   -0.7071 S   0  0  0  0  0  0  0  0  0  0  0  0
    3.3768    2.0687    2.6778 N   0  0  0  0  0  0  0  0  0  0  0  0
    3.6077    3.4031    3.2323 C   0  0  0  0  0  0  0  0  0  0  0  0
    4.1677    4.4324    2.3476 C   0  0  0  0  0  0  0  0  0  0  0  0
    3.3418    5.2640    1.5538 N   0  0  0  0  0  0  0  0  0  0  0  0
    4.1179    5.4275    0.3820 C   0  0  0  0  0  0  0  0  0  0  0  0
    3.4923    5.5030   -0.9478 C   0  0  0  0  0  0  0  0  0  0  0  0
    5.5231    5.3288    0.6140 C   0  0  0  0  0  0  0  0  0  0  0  0
    5.8934    4.6655    2.1844 S   0  0  0  0  0  0  0  0  0  0  0  0
    3.1213    5.5838   -3.5127 C   0  0  0  0  0  0  0  0  0  0  0  0
    1.5941    3.4599   -3.1661 C   0  0  0  0  0  0  0  0  0  0  0  0
    1.9799    4.8691   -2.6736 C   0  0  0  0  0  0  0  0  0  0  0  0
    0.7779    5.7664   -2.6788 C   0  0  0  0  0  0  0  0  0  0  0  0
    2.4876    4.7585   -1.2494 N   0  0  0  0  0  0  0  0  0  0  0  0
    0.4168    3.2472   -3.4913 O   0  0  0  0  0  0  0  0  0  0  0  0
    4.1040    6.5707   -2.2472 S   0  0  0  0  0  0  0  0  0  0  0  0
    2.6138    2.4042   -3.1909 N   0  0  0  0  0  0  0  0  0  0  0  0
    2.2836    1.0336   -3.5614 C   0  0  0  0  0  0  0  0  0  0  0  0
    1.7100    0.2522   -2.3989 C   0  0  0  0  0  0  0  0  0  0  0  0
    1.0029   -0.7544   -2.6572 O   0  0  0  0  0  0  0  0  0  0  0  0
    3.5281    0.3364   -4.0254 C   0  0  0  0  0  0  0  0  0  0  0  0
    3.1968   -1.0755   -4.4088 C   0  0  0  0  0  0  0  0  0  0  0  0
    4.0921    1.0578   -5.2134 C   0  0  0  0  0  0  0  0  0  0  0  0
  1  6  1  0
  1  7  1  0
  2  3  1  0
  2 10  1  0
  3  4  1  0
  4  5  2  0
  5  6  1  0
  6  8  1  0
  7  9  2  0
  7 11  1  0
  8 28  1  0
 11 12  1  0
 12 13  1  0
 13 14  2  0
 13 18  1  0
 14 15  1  0
 15 16  1  0
 15 17  2  0
 16 23  2  0
 16 25  1  0
 17 18  1  0
 19 21  1  0
 19 25  1  0
 20 21  1  0
 20 24  2  0
 20 26  1  0
 21 22  1  0
 21 23  1  0
 26 27  1  0
 27 28  1  0
 27 30  1  0
 28 29  2  0
 30 31  1  0
 30 32  1  0
M  END
>  <i_m_stars>  (70) 
3

>  <s_m_entry_id>  (70) 
1055

>  <s_m_entry_name>  (70) 
208refs.145

>  <s_m_Source_Path>  (70) 
/nfs/zone2/sindhikara/master/src/validation_scripts/tests/prime/macrocycle/BMS208

>  <s_m_Source_File>  (70) 
208refs.maegz

>  <i_m_Source_File_Index>  (70) 
145

>  <r_lp_tautomer_probability>  (70) 
1

>  <r_epik_Ionization_Penalty>  (70) 
  0.0019

>  <r_epik_Ionization_Penalty_Charging>  (70) 
  0.0000

>  <r_epik_Ionization_Penalty_Neutral>  (70) 
  0.0019

>  <r_epik_State_Penalty>  (70) 
  0.0013

>  <i_epik_Tot_Q>  (70) 
0

>  <i_lp_mmshare_version>  (70) 
32003

>  <r_pdb_PDB_RESOLUTION>  (70) 
2.14

>  <r_pdb_PDB_EXPDTA_PH>  (70) 
6.6

>  <s_user_comment>  (70) 
good b factors throughout; imine very likely neutral.

>  <r_f3d_energy>  (70) 
48.5494583157507

>  <s_epik_Chemistry_Notes>  (70) 
This compound has an ester and may undergo hydrolysis at high or low pH. This compound has an imine and may undergo hydrolysis.

>  <s_user_Group>  (70) 
A1

>  <s_user_mc_backbone_quality>  (70) 
B

>  <s_user_overall_b-factors>  (70) 
B

>  <s_user_ligand_name>  (70) 
Largazole

>  <s_user_mc_bb_conf_conserved>  (70) 
A

>  <s_user_rep>  (70) 
1

>  <s_m_subgroup_title>  (70) 
208refs

>  <s_m_subgroupid>  (70) 
208refs

>  <b_m_subgroup_collapsed>  (70) 
0

$$$$
3WDC_conf1
     RDKit          3D

 75 78  0  0  1  0  0  0  0  0999 V2000
    0.3295   -0.7818    2.2178 O   0  0  0  0  0  0  0  0  0  0  0  0
   -0.4293   -0.7787    1.2005 C   0  0  0  0  0  0  0  0  0  0  0  0
    0.0000    0.0000    0.0000 C   0  0  0  0  0  0  0  0  0  0  0  0
    1.5000    0.0000    0.0000 C   0  0  0  0  0  0  0  0  0  0  0  0
    2.0000   -0.7071   -1.2247 C   0  0  0  0  0  0  0  0  0  0  0  0
    1.7338   -0.3307   -2.5257 C   0  0  0  0  0  0  0  0  0  0  0  0
    2.3562   -1.2108   -3.3785 N   0  0  0  0  0  0  0  0  0  0  0  0
    2.2751   -1.0962   -4.8318 C   0  0  0  0  0  0  0  0  0  0  0  0
    0.8410   -1.1894   -5.2615 C   0  0  0  0  0  0  0  0  0  0  0  0
    2.8410    0.2248   -5.2615 C   0  0  0  0  0  0  0  0  0  0  0  0
    4.2751    0.3180   -4.8318 C   0  0  0  0  0  0  0  0  0  0  0  0
    2.7644    0.3331   -6.6351 O   0  0  0  0  0  0  0  0  0  0  0  0
    3.0601   -2.2063   -5.4654 C   0  0  0  0  0  0  0  0  0  0  0  0
    3.0361   -2.1724   -2.6603 C   0  0  0  0  0  0  0  0  0  0  0  0
    3.8057   -3.2607   -3.0836 C   0  0  0  0  0  0  0  0  0  0  0  0
    4.3719   -4.0614   -2.0893 C   0  0  0  0  0  0  0  0  0  0  0  0
    4.1834   -3.7949   -0.7349 C   0  0  0  0  0  0  0  0  0  0  0  0
    3.4156   -2.7091   -0.3125 C   0  0  0  0  0  0  0  0  0  0  0  0
    2.8272   -1.8770   -1.2777 C   0  0  0  0  0  0  0  0  0  0  0  0
    1.9600    1.3011   -0.0000 O   0  0  0  0  0  0  0  0  0  0  0  0
   -0.4298    1.3990   -0.0000 N   0  0  0  0  0  0  0  0  0  0  0  0
   -1.6695   -1.5575    1.2685 N   0  0  0  0  0  0  0  0  0  0  0  0
   -1.9461   -2.3043    2.4921 C   0  0  0  0  0  0  0  0  0  0  0  0
   -2.6523   -1.6165    0.1903 C   0  0  0  0  0  0  0  0  0  0  0  0
   -3.3462   -2.9336    0.3739 C   0  0  0  0  0  0  0  0  0  0  0  0
   -2.3440   -4.0451    0.2730 C   0  0  0  0  0  0  0  0  0  0  0  0
   -1.6905   -4.0081   -1.0766 C   0  0  0  0  0  0  0  0  0  0  0  0
   -2.6497   -4.1633   -2.0566 O   0  0  0  0  0  0  0  0  0  0  0  0
   -3.0379   -5.3622    0.4566 C   0  0  0  0  0  0  0  0  0  0  0  0
   -3.7377   -0.5793    0.3737 C   0  0  0  0  0  0  0  0  0  0  0  0
   -3.4416    0.5571    0.7898 O   0  0  0  0  0  0  0  0  0  0  0  0
   -5.1321   -0.9307    0.0684 N   0  0  0  0  0  0  0  0  0  0  0  0
   -6.2364   -0.0012    0.3489 C   0  0  0  0  0  0  0  0  0  0  0  0
   -6.4733   -0.0066    1.8457 C   0  0  0  0  0  0  0  0  0  0  0  0
   -6.6192   -1.0983    2.4361 O   0  0  0  0  0  0  0  0  0  0  0  0
   -7.4811   -0.4767   -0.3400 C   0  0  0  0  0  0  0  0  0  0  0  0
   -6.4933    1.2622    2.5831 N   0  0  0  0  0  0  0  0  0  0  0  0
   -6.5327    1.2955    4.0531 C   0  0  0  0  0  0  0  0  0  0  0  0
   -5.0824    1.1988    4.4800 C   0  0  0  0  0  0  0  0  0  0  0  0
   -7.3362    0.1928    4.6763 C   0  0  0  0  0  0  0  0  0  0  0  0
   -8.6421    0.2701    4.2368 O   0  0  0  0  0  0  0  0  0  0  0  0
   -8.6733    0.1423    2.8631 C   0  0  0  0  0  0  0  0  0  0  0  0
   -7.3022    0.3317    6.1695 C   0  0  0  0  0  0  0  0  0  0  0  0
   -6.0880    0.2851    6.8443 C   0  0  0  0  0  0  0  0  0  0  0  0
   -6.0565    0.4139    8.2278 C   0  0  0  0  0  0  0  0  0  0  0  0
   -7.2391    0.5892    8.9365 C   0  0  0  0  0  0  0  0  0  0  0  0
   -8.4533    0.6358    8.2617 C   0  0  0  0  0  0  0  0  0  0  0  0
   -8.4848    0.5071    6.8782 C   0  0  0  0  0  0  0  0  0  0  0  0
   -4.5012    0.0954    4.4220 O   0  0  0  0  0  0  0  0  0  0  0  0
   -4.3676    2.4032    4.9239 N   0  0  0  0  0  0  0  0  0  0  0  0
   -2.9290    2.3656    5.1845 C   0  0  0  0  0  0  0  0  0  0  0  0
   -2.2868    3.6357    5.6436 C   0  0  0  0  0  0  0  0  0  0  0  0
   -1.8146    3.6777    6.8174 O   0  0  0  0  0  0  0  0  0  0  0  0
   -2.2374    1.8808    3.9449 C   0  0  0  0  0  0  0  0  0  0  0  0
   -3.2563    1.6060    2.8788 C   0  0  0  0  0  0  0  0  0  0  0  0
   -1.4839    0.6210    4.2530 C   0  0  0  0  0  0  0  0  0  0  0  0
   -2.1411    4.8248    4.7957 N   0  0  0  0  0  0  0  0  0  0  0  0
   -1.4125    5.9668    5.3402 C   0  0  0  0  0  0  0  0  0  0  0  0
   -2.7188    4.9471    3.4687 C   0  0  0  0  0  0  0  0  0  0  0  0
   -2.5955    6.3928    3.0883 C   0  0  0  0  0  0  0  0  0  0  0  0
   -3.1742    6.6010    1.7202 C   0  0  0  0  0  0  0  0  0  0  0  0
   -4.6215    6.2068    1.7242 C   0  0  0  0  0  0  0  0  0  0  0  0
   -3.0508    8.0467    1.3398 C   0  0  0  0  0  0  0  0  0  0  0  0
   -2.0987    4.1806    2.3358 C   0  0  0  0  0  0  0  0  0  0  0  0
   -2.7779    3.3120    1.7450 O   0  0  0  0  0  0  0  0  0  0  0  0
    0.2172    2.4011    0.8631 C   0  0  0  0  0  0  0  0  0  0  0  0
   -0.1449    3.8560    0.7222 C   0  0  0  0  0  0  0  0  0  0  0  0
    1.0874    2.0688    1.6943 O   0  0  0  0  0  0  0  0  0  0  0  0
    1.1186    4.5976    0.4002 C   0  0  0  0  0  0  0  0  0  0  0  0
    0.7984    6.0384    0.1328 C   0  0  0  0  0  0  0  0  0  0  0  0
    1.7570    3.9934   -0.8153 C   0  0  0  0  0  0  0  0  0  0  0  0
    3.0867    4.0179   -0.9823 C   0  0  0  0  0  0  0  0  0  0  0  0
    3.7251    3.4137   -2.1977 C   0  0  0  0  0  0  0  0  0  0  0  0
    3.9833    4.6505    0.0404 C   0  0  0  0  0  0  0  0  0  0  0  0
   -0.7266    4.4790    1.9075 N   0  0  0  0  0  0  0  0  0  0  0  0
  1  2  2  0
  2  3  1  0
  2 22  1  0
  3  4  1  0
  3 21  1  0
  4  5  1  0
  4 20  1  0
  5  6  2  0
  5 19  1  0
  6  7  1  0
  7  8  1  0
  7 14  1  0
  8  9  1  0
  8 10  1  0
  8 13  1  0
 10 11  1  0
 10 12  1  0
 14 15  1  0
 14 19  2  0
 15 16  2  0
 16 17  1  0
 17 18  2  0
 18 19  1  0
 21 66  1  0
 22 23  1  0
 22 24  1  0
 24 25  1  0
 24 30  1  0
 25 26  1  0
 26 27  1  0
 26 29  1  0
 27 28  1  0
 30 31  2  0
 30 32  1  0
 32 33  1  0
 33 34  1  0
 33 36  1  0
 34 35  2  0
 34 37  1  0
 37 38  1  0
 38 39  1  0
 38 40  1  0
 39 49  2  0
 39 50  1  0
 40 41  1  0
 40 43  1  0
 41 42  1  0
 43 44  2  0
 43 48  1  0
 44 45  1  0
 45 46  2  0
 46 47  1  0
 47 48  2  0
 50 51  1  0
 51 52  1  0
 51 54  1  0
 52 53  2  0
 52 57  1  0
 54 55  1  0
 54 56  1  0
 57 58  1  0
 57 59  1  0
 59 60  1  0
 59 64  1  0
 60 61  1  0
 61 62  1  0
 61 63  1  0
 64 65  2  0
 64 75  1  0
 66 67  1  0
 66 68  2  0
 67 69  1  0
 67 75  1  0
 69 70  1  0
 69 71  1  0
 71 72  2  0
 72 73  1  0
 72 74  1  0
M  END
>  <i_m_stars>  (71) 
3

>  <s_m_entry_id>  (71) 
1050

>  <s_m_entry_name>  (71) 
208refs.140

>  <s_m_Source_Path>  (71) 
/nfs/zone2/sindhikara/master/src/validation_scripts/tests/prime/macrocycle/BMS208

>  <s_m_Source_File>  (71) 
208refs.maegz

>  <i_m_Source_File_Index>  (71) 
140

>  <r_lp_tautomer_probability>  (71) 
1

>  <r_epik_Ionization_Penalty>  (71) 
  0.0000

>  <r_epik_Ionization_Penalty_Charging>  (71) 
  0.0000

>  <r_epik_Ionization_Penalty_Neutral>  (71) 
  0.0000

>  <r_epik_State_Penalty>  (71) 
  0.0000

>  <i_epik_Tot_Q>  (71) 
0

>  <i_lp_mmshare_version>  (71) 
32003

>  <r_pdb_PDB_RESOLUTION>  (71) 
1.18

>  <r_pdb_PDB_EXPDTA_PH>  (71) 
7.5

>  <s_user_comment>  (71) 
good.

>  <r_f3d_energy>  (71) 
2843.83306540174

>  <s_user_Group>  (71) 
A1

>  <s_user_mc_backbone_quality>  (71) 
A

>  <s_user_overall_b-factors>  (71) 
A

>  <s_user_ligand_name>  (71) 
Cyclomarin A

>  <s_user_rep>  (71) 
1

>  <s_m_subgroup_title>  (71) 
208refs

>  <s_m_subgroupid>  (71) 
208refs

>  <b_m_subgroup_collapsed>  (71) 
0

$$$$
3WNF-C_conf1
     RDKit          3D

 49 49  0  0  1  0  0  0  0  0999 V2000
   -2.2472    3.4727    1.7889 C   0  0  0  0  0  0  0  0  0  0  0  0
   -3.0645    2.5618    1.8840 O   0  0  0  0  0  0  0  0  0  0  0  0
   -1.6970    4.2659    2.9370 C   0  0  0  0  0  0  0  0  0  0  0  0
   -1.7408    3.8726    0.6221 N   0  0  0  0  0  0  0  0  0  0  0  0
   -2.1621    3.2128   -0.6103 C   0  0  0  0  0  0  0  0  0  0  0  0
   -1.7908    1.7495   -0.4979 C   0  0  0  0  0  0  0  0  0  0  0  0
   -2.6115    0.8862   -0.8577 O   0  0  0  0  0  0  0  0  0  0  0  0
   -1.4516    3.8446   -1.7703 C   0  0  0  0  0  0  0  0  0  0  0  0
   -2.0565    3.2498   -3.3420 S   0  0  0  0  0  0  0  0  0  0  0  0
   -0.4609    1.3829    0.0000 N   0  0  0  0  0  0  0  0  0  0  0  0
    0.0000    0.0000    0.0000 C   0  0  0  0  0  0  0  0  0  0  0  0
   -0.5098   -0.7903    1.1742 C   0  0  0  0  0  0  0  0  0  0  0  0
   -1.7336   -1.0008    1.2861 O   0  0  0  0  0  0  0  0  0  0  0  0
    1.5000    0.0000    0.0000 C   0  0  0  0  0  0  0  0  0  0  0  0
    2.0000    0.7071   -1.2247 C   0  0  0  0  0  0  0  0  0  0  0  0
    2.8333    1.8856   -0.8165 C   0  0  0  0  0  0  0  0  0  0  0  0
    4.0000    1.4142    0.0000 C   0  0  0  0  0  0  0  0  0  0  0  0
    3.9459    2.0260    1.3245 N   0  0  0  0  0  0  0  0  0  0  0  0
    0.4447   -1.3391    2.1484 N   0  0  0  0  0  0  0  0  0  0  0  0
    0.0116   -2.2562    3.2119 C   0  0  0  0  0  0  0  0  0  0  0  0
   -0.0718   -3.6079    2.5322 C   0  0  0  0  0  0  0  0  0  0  0  0
    0.9648   -4.2868    2.4003 O   0  0  0  0  0  0  0  0  0  0  0  0
   -1.3090   -1.8838    3.8180 C   0  0  0  0  0  0  0  0  0  0  0  0
   -1.2152   -0.5117    4.4168 C   0  0  0  0  0  0  0  0  0  0  0  0
   -1.6649   -2.8730    4.8879 C   0  0  0  0  0  0  0  0  0  0  0  0
   -1.5086   -0.5862    5.8859 C   0  0  0  0  0  0  0  0  0  0  0  0
   -1.3582   -4.0712    1.9985 N   0  0  0  0  0  0  0  0  0  0  0  0
   -1.4558   -5.3085    1.2175 C   0  0  0  0  0  0  0  0  0  0  0  0
   -0.9507   -4.9944   -0.1759 C   0  0  0  0  0  0  0  0  0  0  0  0
    0.0459   -5.5936   -0.6153 O   0  0  0  0  0  0  0  0  0  0  0  0
   -2.8961   -5.7178    1.1278 C   0  0  0  0  0  0  0  0  0  0  0  0
   -3.3148   -5.7614   -0.3119 C   0  0  0  0  0  0  0  0  0  0  0  0
   -4.4970   -5.5225   -0.6237 O   0  0  0  0  0  0  0  0  0  0  0  0
   -2.4800   -6.0366   -1.1948 O   0  0  0  0  0  0  0  0  0  0  0  0
   -1.6365   -3.9697   -0.9802 N   0  0  0  0  0  0  0  0  0  0  0  0
   -1.1514   -3.6122   -2.3171 C   0  0  0  0  0  0  0  0  0  0  0  0
   -2.0546   -2.6321   -3.0239 C   0  0  0  0  0  0  0  0  0  0  0  0
   -3.2806   -2.8658   -3.0809 O   0  0  0  0  0  0  0  0  0  0  0  0
   -1.0578   -4.8586   -3.1464 C   0  0  0  0  0  0  0  0  0  0  0  0
   -0.1043   -5.8191   -2.4996 C   0  0  0  0  0  0  0  0  0  0  0  0
   -0.3889   -6.9494   -2.1148 O   0  0  0  0  0  0  0  0  0  0  0  0
    1.1188   -5.3011   -2.3837 N   0  0  0  0  0  0  0  0  0  0  0  0
   -1.4904   -1.4151   -3.6327 N   0  0  0  0  0  0  0  0  0  0  0  0
   -2.3598   -0.4344   -4.2873 C   0  0  0  0  0  0  0  0  0  0  0  0
   -3.2676   -1.1646   -5.2322 C   0  0  0  0  0  0  0  0  0  0  0  0
   -2.9905   -2.2073   -5.8176 O   0  0  0  0  0  0  0  0  0  0  0  0
   -1.6280    0.6106   -5.0648 C   0  0  0  0  0  0  0  0  0  0  0  0
   -0.7966    1.7654   -4.0095 S   0  0  0  0  0  0  0  0  0  0  0  0
   -4.4395   -0.5444   -5.3728 N   0  0  0  0  0  0  0  0  0  0  0  0
  1  2  2  0
  1  3  1  0
  1  4  1  0
  4  5  1  0
  5  6  1  0
  5  8  1  0
  6  7  2  0
  6 10  1  0
  8  9  1  0
  9 48  1  0
 10 11  1  0
 11 12  1  0
 11 14  1  0
 12 13  2  0
 12 19  1  0
 14 15  1  0
 15 16  1  0
 16 17  1  0
 17 18  1  0
 19 20  1  0
 20 21  1  0
 20 23  1  0
 21 22  2  0
 21 27  1  0
 23 24  1  0
 23 25  1  0
 24 26  1  0
 27 28  1  0
 28 29  1  0
 28 31  1  0
 29 30  2  0
 29 35  1  0
 31 32  1  0
 32 33  2  0
 32 34  1  0
 35 36  1  0
 36 37  1  0
 36 39  1  0
 37 38  2  0
 37 43  1  0
 39 40  1  0
 40 41  2  0
 40 42  1  0
 43 44  1  0
 44 45  1  0
 44 47  1  0
 45 46  2  0
 45 49  1  0
 47 48  1  0
M  CHG  2  18   1  34  -1
M  END
>  <i_m_stars>  (72) 
2

>  <s_m_entry_id>  (72) 
1048

>  <s_m_entry_name>  (72) 
208refs.138

>  <s_m_Source_Path>  (72) 
/nfs/zone2/sindhikara/master/src/validation_scripts/tests/prime/macrocycle/BMS208

>  <s_m_Source_File>  (72) 
208refs.maegz

>  <i_m_Source_File_Index>  (72) 
138

>  <r_lp_tautomer_probability>  (72) 
1

>  <r_epik_Ionization_Penalty>  (72) 
  0.0027

>  <r_epik_Ionization_Penalty_Charging>  (72) 
  0.0026

>  <r_epik_Ionization_Penalty_Neutral>  (72) 
  0.0001

>  <r_epik_State_Penalty>  (72) 
  0.0000

>  <i_epik_Tot_Q>  (72) 
0

>  <i_lp_mmshare_version>  (72) 
32005

>  <r_pdb_PDB_RESOLUTION>  (72) 
1.45

>  <r_pdb_PDB_EXPDTA_PH>  (72) 
4.6

>  <s_user_comment>  (72) 
Acetyl and lys disordered; otherwise OK

>  <r_f3d_energy>  (72) 
662.351779570098

>  <s_user_Group>  (72) 
B1

>  <s_user_mc_backbone_quality>  (72) 
B

>  <s_user_overall_b-factors>  (72) 
B

>  <s_user_ligand_name>  (72) 
CYCLIC HEXAPEPTIDE CKIDNC

>  <s_user_mc_bb_conf_conserved>  (72) 
A

>  <s_m_subgroup_title>  (72) 
208refs

>  <s_m_subgroupid>  (72) 
208refs

>  <b_m_subgroup_collapsed>  (72) 
0

$$$$
4GM9_conf1
     RDKit          3D

 42 43  0  0  1  0  0  0  0  0999 V2000
    2.7807    6.4256    1.7429 C   0  0  0  0  0  0  0  0  0  0  0  0
    1.4455    6.6745    2.3797 C   0  0  0  0  0  0  0  0  0  0  0  0
    1.4515    6.1369    3.7801 C   0  0  0  0  0  0  0  0  0  0  0  0
    0.3761    5.9861    1.5844 C   0  0  0  0  0  0  0  0  0  0  0  0
   -0.5749    6.5432    1.0428 O   0  0  0  0  0  0  0  0  0  0  0  0
   -0.3627    3.8274    0.7964 C   0  0  0  0  0  0  0  0  0  0  0  0
    0.0954    2.3943    0.8921 C   0  0  0  0  0  0  0  0  0  0  0  0
   -1.7630    4.0596    1.2461 C   0  0  0  0  0  0  0  0  0  0  0  0
    0.5783    4.6691    1.5296 N   0  0  0  0  0  0  0  0  0  0  0  0
    0.9856    2.0900    1.7126 O   0  0  0  0  0  0  0  0  0  0  0  0
   -0.2614    4.2281   -0.6455 C   0  0  0  0  0  0  0  0  0  0  0  0
   -4.5013    4.0210    2.8248 C   0  0  0  0  0  0  0  0  0  0  0  0
   -4.6320    2.6593    3.3437 N   0  0  0  0  0  0  0  0  0  0  0  0
   -3.2259    4.6978    3.1923 C   0  0  0  0  0  0  0  0  0  0  0  0
   -1.9483    4.0686    2.7274 C   0  0  0  0  0  0  0  0  0  0  0  0
   -0.4847    1.3800   -0.0000 N   0  0  0  0  0  0  0  0  0  0  0  0
    0.0000    0.0000    0.0000 C   0  0  0  0  0  0  0  0  0  0  0  0
   -0.4888   -0.7748    1.2010 C   0  0  0  0  0  0  0  0  0  0  0  0
    0.3483   -1.3440    1.9280 O   0  0  0  0  0  0  0  0  0  0  0  0
    1.5000    0.0000    0.0000 C   0  0  0  0  0  0  0  0  0  0  0  0
    2.0000    0.7071   -1.2247 C   0  0  0  0  0  0  0  0  0  0  0  0
    1.5000    0.0000   -2.4495 C   0  0  0  0  0  0  0  0  0  0  0  0
    0.6889    0.9177   -3.2442 N   0  0  0  0  0  0  0  0  0  0  0  0
    1.3157    1.7415   -4.2738 C   0  0  0  0  0  0  0  0  0  0  0  0
    2.7475    1.6923   -4.5550 N   0  0  0  0  0  0  0  0  0  0  0  0
    0.5770    2.5426   -4.9604 N   0  0  0  0  0  0  0  0  0  0  0  0
   -1.9275   -0.8537    1.4773 N   0  0  0  0  0  0  0  0  0  0  0  0
   -2.4653   -1.6090    2.6061 C   0  0  0  0  0  0  0  0  0  0  0  0
   -3.4606   -0.7234    3.3371 C   0  0  0  0  0  0  0  0  0  0  0  0
   -3.1276   -0.2161    4.4231 O   0  0  0  0  0  0  0  0  0  0  0  0
   -1.5002   -2.1116    3.6385 C   0  0  0  0  0  0  0  0  0  0  0  0
   -2.2499   -2.8556    4.7036 C   0  0  0  0  0  0  0  0  0  0  0  0
   -4.7840   -0.4904    2.7506 N   0  0  0  0  0  0  0  0  0  0  0  0
   -5.7821    0.3531    3.4076 C   0  0  0  0  0  0  0  0  0  0  0  0
   -7.1360   -0.1703    3.0295 C   0  0  0  0  0  0  0  0  0  0  0  0
   -7.5167   -0.2119    1.6935 C   0  0  0  0  0  0  0  0  0  0  0  0
   -8.7712   -0.6968    1.3431 C   0  0  0  0  0  0  0  0  0  0  0  0
   -9.6450   -1.1401    2.3288 C   0  0  0  0  0  0  0  0  0  0  0  0
   -9.2643   -1.0986    3.6649 C   0  0  0  0  0  0  0  0  0  0  0  0
   -8.0098   -0.6136    4.0152 C   0  0  0  0  0  0  0  0  0  0  0  0
   -5.6899    1.7599    2.8614 C   0  0  0  0  0  0  0  0  0  0  0  0
   -6.5204    2.1371    2.0119 O   0  0  0  0  0  0  0  0  0  0  0  0
  1  2  1  0
  2  3  1  0
  2  4  1  0
  4  5  2  0
  4  9  1  0
  6  7  1  0
  6  8  1  0
  6  9  1  0
  6 11  1  0
  7 10  2  0
  7 16  1  0
  8 15  1  0
 12 13  1  0
 12 14  1  0
 13 41  1  0
 14 15  1  0
 16 17  1  0
 17 18  1  0
 17 20  1  0
 18 19  2  0
 18 27  1  0
 20 21  1  0
 21 22  1  0
 22 23  1  0
 23 24  1  0
 24 25  1  0
 24 26  2  0
 27 28  1  0
 28 29  1  0
 28 31  1  0
 29 30  2  0
 29 33  1  0
 31 32  1  0
 33 34  1  0
 34 35  1  0
 34 41  1  0
 35 36  2  0
 35 40  1  0
 36 37  1  0
 37 38  2  0
 38 39  1  0
 39 40  2  0
 41 42  2  0
M  CHG  1  26   1
M  END
>  <i_m_stars>  (73) 
3

>  <s_m_entry_id>  (73) 
1054

>  <s_m_entry_name>  (73) 
208refs.144

>  <s_m_Source_Path>  (73) 
/nfs/zone2/sindhikara/master/src/validation_scripts/tests/prime/macrocycle/BMS208

>  <s_m_Source_File>  (73) 
208refs.maegz

>  <i_m_Source_File_Index>  (73) 
144

>  <r_lp_tautomer_probability>  (73) 
1

>  <r_epik_Ionization_Penalty>  (73) 
  0.0000

>  <r_epik_Ionization_Penalty_Charging>  (73) 
  0.0000

>  <r_epik_Ionization_Penalty_Neutral>  (73) 
  0.0000

>  <r_epik_State_Penalty>  (73) 
  0.0000

>  <i_epik_Tot_Q>  (73) 
1

>  <i_lp_mmshare_version>  (73) 
32003

>  <r_pdb_PDB_RESOLUTION>  (73) 
2.1

>  <r_pdb_PDB_EXPDTA_PH>  (73) 
8.5

>  <s_user_comment>  (73) 
good b factors throughout; one formal charge

>  <r_f3d_energy>  (73) 
186.246470571423

>  <s_epik_Chemistry_Notes>  (73) 
This compound has an imine and may undergo hydrolysis.

>  <s_user_Group>  (73) 
A1

>  <s_user_mc_backbone_quality>  (73) 
A

>  <s_user_overall_b-factors>  (73) 
A

>  <s_user_ligand_name>  (73) 
MM-401

>  <s_user_rep>  (73) 
1

>  <s_m_subgroup_title>  (73) 
208refs

>  <s_m_subgroupid>  (73) 
208refs

>  <b_m_subgroup_collapsed>  (73) 
0

$$$$
4GVU_conf1
     RDKit          3D

 68 71  0  0  1  0  0  0  0  0999 V2000
   -2.9815   -1.7124    2.4646 C   0  0  0  0  0  0  0  0  0  0  0  0
   -2.5631   -1.1285    1.1477 C   0  0  0  0  0  0  0  0  0  0  0  0
   -2.2829   -1.7750    0.1419 O   0  0  0  0  0  0  0  0  0  0  0  0
   -3.6968   -3.0100    2.2315 C   0  0  0  0  0  0  0  0  0  0  0  0
   -4.9105   -2.7667    1.3843 C   0  0  0  0  0  0  0  0  0  0  0  0
   -5.6259   -4.0644    1.1512 C   0  0  0  0  0  0  0  0  0  0  0  0
   -4.7093   -5.0214    0.4485 C   0  0  0  0  0  0  0  0  0  0  0  0
   -2.5286    0.2039    1.1921 N   0  0  0  0  0  0  0  0  0  0  0  0
   -2.1420    0.9529    0.0000 C   0  0  0  0  0  0  0  0  0  0  0  0
   -0.6565    1.1608    0.0000 C   0  0  0  0  0  0  0  0  0  0  0  0
   -0.0927    2.2518    0.0000 O   0  0  0  0  0  0  0  0  0  0  0  0
   -2.8331    2.2842    0.0000 C   0  0  0  0  0  0  0  0  0  0  0  0
   -4.3187    2.0764    0.0000 C   0  0  0  0  0  0  0  0  0  0  0  0
   -4.9118    2.7074   -1.2247 C   0  0  0  0  0  0  0  0  0  0  0  0
   -4.4621    3.6924   -1.8041 O   0  0  0  0  0  0  0  0  0  0  0  0
   -6.0092    2.0635   -1.6243 N   0  0  0  0  0  0  0  0  0  0  0  0
    0.0000    0.0000    0.0000 N   0  0  0  0  0  0  0  0  0  0  0  0
    1.4600    0.0000    0.0000 C   0  0  0  0  0  0  0  0  0  0  0  0
    1.9434    0.6856    1.2563 C   0  0  0  0  0  0  0  0  0  0  0  0
    1.2420    1.5784    1.7725 O   0  0  0  0  0  0  0  0  0  0  0  0
    1.9607    0.7061   -1.2229 C   0  0  0  0  0  0  0  0  0  0  0  0
    1.3408    1.9100   -1.3884 O   0  0  0  0  0  0  0  0  0  0  0  0
    1.6918   -0.1682   -2.4118 C   0  0  0  0  0  0  0  0  0  0  0  0
    3.2278    0.2917    1.8501 N   0  0  0  0  0  0  0  0  0  0  0  0
    3.7414    0.9580    3.0547 C   0  0  0  0  0  0  0  0  0  0  0  0
    3.8500    0.2772    4.2097 C   0  0  0  0  0  0  0  0  0  0  0  0
    3.4540   -1.1685    4.2671 C   0  0  0  0  0  0  0  0  0  0  0  0
    4.1419    2.4139    2.9886 C   0  0  0  0  0  0  0  0  0  0  0  0
    3.3571    3.2776    3.4246 O   0  0  0  0  0  0  0  0  0  0  0  0
    5.4294    2.7858    2.3790 N   0  0  0  0  0  0  0  0  0  0  0  0
    5.8066    4.1834    2.1886 C   0  0  0  0  0  0  0  0  0  0  0  0
    5.2063    4.7932    0.9278 C   0  0  0  0  0  0  0  0  0  0  0  0
    4.3223    4.2148    0.2855 O   0  0  0  0  0  0  0  0  0  0  0  0
    7.3256    4.3534    2.1354 C   0  0  0  0  0  0  0  0  0  0  0  0
    7.7418    5.8027    1.9637 C   0  0  0  0  0  0  0  0  0  0  0  0
    7.1170    6.4864    0.7572 C   0  0  0  0  0  0  0  0  0  0  0  0
    7.8787    6.1600   -0.3462 O   0  0  0  0  0  0  0  0  0  0  0  0
    5.7134    6.1156    0.4700 N   0  0  0  0  0  0  0  0  0  0  0  0
    4.8243    7.0336   -0.2670 C   0  0  0  0  0  0  0  0  0  0  0  0
    4.9199    6.9026   -1.7578 C   0  0  0  0  0  0  0  0  0  0  0  0
    6.0240    6.5373   -2.2758 O   0  0  0  0  0  0  0  0  0  0  0  0
    5.1747    8.4485    0.0868 C   0  0  0  0  0  0  0  0  0  0  0  0
    3.9815    9.1211    0.6984 C   0  0  0  0  0  0  0  0  0  0  0  0
    3.4389   10.2522    0.1002 C   0  0  0  0  0  0  0  0  0  0  0  0
    3.4186    8.6132    1.8632 C   0  0  0  0  0  0  0  0  0  0  0  0
    2.3334   10.8753    0.6668 C   0  0  0  0  0  0  0  0  0  0  0  0
    2.3131    9.2364    2.4299 C   0  0  0  0  0  0  0  0  0  0  0  0
    1.7705   10.3674    1.8317 C   0  0  0  0  0  0  0  0  0  0  0  0
    3.8207    7.1981   -2.6858 N   0  0  0  0  0  0  0  0  0  0  0  0
    2.4852    7.6224   -2.2901 C   0  0  0  0  0  0  0  0  0  0  0  0
    1.5094    6.5272   -2.6932 C   0  0  0  0  0  0  0  0  0  0  0  0
    0.5697    6.8018   -3.4621 O   0  0  0  0  0  0  0  0  0  0  0  0
    2.1563    8.7980   -3.1619 C   0  0  0  0  0  0  0  0  0  0  0  0
    0.7865    9.3054   -2.8212 C   0  0  0  0  0  0  0  0  0  0  0  0
    0.0069    9.9117   -3.7992 C   0  0  0  0  0  0  0  0  0  0  0  0
    0.2968    9.1693   -1.5277 C   0  0  0  0  0  0  0  0  0  0  0  0
   -1.2623   10.3818   -3.4835 C   0  0  0  0  0  0  0  0  0  0  0  0
   -0.9725    9.6394   -1.2120 C   0  0  0  0  0  0  0  0  0  0  0  0
   -3.0123   10.7125   -1.8766 O   0  0  0  0  0  0  0  0  0  0  0  0
   -1.7520   10.2457   -2.1900 C   0  0  0  0  0  0  0  0  0  0  0  0
    4.0859    7.0439   -4.1132 C   0  0  0  0  0  0  0  0  0  0  0  0
    1.6957    5.1679   -2.1652 N   0  0  0  0  0  0  0  0  0  0  0  0
    0.8120    4.0659   -2.5509 C   0  0  0  0  0  0  0  0  0  0  0  0
    1.5440    2.7344   -2.4668 C   0  0  0  0  0  0  0  0  0  0  0  0
    2.3226    2.4312   -3.4009 O   0  0  0  0  0  0  0  0  0  0  0  0
    0.3527    4.1803   -3.9742 C   0  0  0  0  0  0  0  0  0  0  0  0
    1.5433    4.1643   -4.8866 C   0  0  0  0  0  0  0  0  0  0  0  0
   -0.5455    3.0252   -4.3042 C   0  0  0  0  0  0  0  0  0  0  0  0
  1  2  1  0
  1  4  1  0
  2  3  2  0
  2  8  1  0
  4  5  1  0
  5  6  1  0
  6  7  1  0
  8  9  1  0
  9 10  1  0
  9 12  1  0
 10 11  2  0
 10 17  1  0
 12 13  1  0
 13 14  1  0
 14 15  2  0
 14 16  1  0
 17 18  1  0
 18 19  1  0
 18 21  1  0
 19 20  2  0
 19 24  1  0
 21 22  1  0
 21 23  1  0
 22 64  1  0
 24 25  1  0
 25 26  2  0
 25 28  1  0
 26 27  1  0
 28 29  2  0
 28 30  1  0
 30 31  1  0
 31 32  1  0
 31 34  1  0
 32 33  2  0
 32 38  1  0
 34 35  1  0
 35 36  1  0
 36 37  1  0
 36 38  1  0
 38 39  1  0
 39 40  1  0
 39 42  1  0
 40 41  2  0
 40 49  1  0
 42 43  1  0
 43 44  2  0
 43 45  1  0
 44 46  1  0
 45 47  2  0
 46 48  2  0
 47 48  1  0
 49 50  1  0
 49 61  1  0
 50 51  1  0
 50 53  1  0
 51 52  2  0
 51 62  1  0
 53 54  1  0
 54 55  2  0
 54 56  1  0
 55 57  1  0
 56 58  2  0
 57 60  2  0
 58 60  1  0
 59 60  1  0
 62 63  1  0
 63 64  1  0
 63 66  1  0
 64 65  2  0
 66 67  1  0
 66 68  1  0
M  END
>  <i_m_stars>  (74) 
3

>  <s_m_entry_id>  (74) 
1052

>  <s_m_entry_name>  (74) 
208refs.142

>  <s_m_Source_Path>  (74) 
/nfs/zone2/sindhikara/master/src/validation_scripts/tests/prime/macrocycle/BMS208

>  <s_m_Source_File>  (74) 
208refs.maegz

>  <i_m_Source_File_Index>  (74) 
142

>  <r_lp_tautomer_probability>  (74) 
0.999999999997365

>  <r_epik_Ionization_Penalty>  (74) 
  0.0139

>  <r_epik_Ionization_Penalty_Charging>  (74) 
  0.0000

>  <r_epik_Ionization_Penalty_Neutral>  (74) 
  0.0139

>  <r_epik_State_Penalty>  (74) 
  0.0100

>  <i_epik_Tot_Q>  (74) 
0

>  <i_lp_mmshare_version>  (74) 
32003

>  <r_pdb_PDB_RESOLUTION>  (74) 
1.55

>  <r_pdb_PDB_EXPDTA_PH>  (74) 
5

>  <s_user_comment>  (74) 
moderately good temp. factors on mc; 2 sidechains have higher temp.ftrs

>  <r_f3d_energy>  (74) 
742.696579438009

>  <s_epik_Chemistry_Notes>  (74) 
This compound has an ester and may undergo hydrolysis at high or low pH. This compound contains an acetal/aminal-like group ( X-CH(R)-Y where X, Y are N, S, or O) that may be acid/base labile, releasing an aldehyde.

>  <s_user_Group>  (74) 
A1

>  <s_user_mc_backbone_quality>  (74) 
A

>  <s_user_overall_b-factors>  (74) 
B

>  <s_user_ligand_name>  (74) 
LYNGBYASTATIN

>  <s_user_rep>  (74) 
1

>  <s_m_subgroup_title>  (74) 
208refs

>  <s_m_subgroupid>  (74) 
208refs

>  <b_m_subgroup_collapsed>  (74) 
0

$$$$
4JNA-H_conf1
     RDKit          3D

 38 38  0  0  1  0  0  0  0  0999 V2000
   -0.4825   -0.7847   -1.1798 C   0  0  0  0  0  0  0  0  0  0  0  0
   -0.0466   -0.2994   -2.5387 C   0  0  0  0  0  0  0  0  0  0  0  0
    1.0482    0.2796   -2.6792 O   0  0  0  0  0  0  0  0  0  0  0  0
   -0.4604    1.2749    0.0000 O   0  0  0  0  0  0  0  0  0  0  0  0
    0.0000    0.0000    0.0000 C   0  0  0  0  0  0  0  0  0  0  0  0
    1.5000    0.0000    0.0000 C   0  0  0  0  0  0  0  0  0  0  0  0
    2.0000   -1.4142   -0.0000 C   0  0  0  0  0  0  0  0  0  0  0  0
    1.5000   -2.1213    1.2247 C   0  0  0  0  0  0  0  0  0  0  0  0
    2.0000   -3.5355    1.2247 C   0  0  0  0  0  0  0  0  0  0  0  0
    0.6156   -4.6543    1.2247 S   0  0  0  0  0  0  0  0  0  0  0  0
    1.6836   -6.0783    1.2247 C   0  0  0  0  0  0  0  0  0  0  0  0
   -0.9207   -0.5471   -3.6982 N   0  0  0  0  0  0  0  0  0  0  0  0
   -0.5424   -0.1377   -5.0493 C   0  0  0  0  0  0  0  0  0  0  0  0
    0.9270   -0.2805   -5.3148 C   0  0  0  0  0  0  0  0  0  0  0  0
    1.2267    0.1593   -6.7172 C   0  0  0  0  0  0  0  0  0  0  0  0
    1.3288   -1.7156   -5.1441 C   0  0  0  0  0  0  0  0  0  0  0  0
   -0.9983    1.2766   -5.3130 C   0  0  0  0  0  0  0  0  0  0  0  0
   -0.1545    2.1491   -5.5968 O   0  0  0  0  0  0  0  0  0  0  0  0
   -3.9328    2.1794   -8.0974 C   0  0  0  0  0  0  0  0  0  0  0  0
   -2.4301    1.6008   -5.2420 N   0  0  0  0  0  0  0  0  0  0  0  0
   -3.4144    3.8799   -8.0073 S   0  0  0  0  0  0  0  0  0  0  0  0
   -2.2209    3.5162   -6.7378 C   0  0  0  0  0  0  0  0  0  0  0  0
   -2.9223    2.9458   -5.5408 C   0  0  0  0  0  0  0  0  0  0  0  0
   -1.9009    4.8016   -4.4493 O   0  0  0  0  0  0  0  0  0  0  0  0
   -2.7171    3.8613   -4.3607 C   0  0  0  0  0  0  0  0  0  0  0  0
   -3.4834    3.6433   -3.1276 N   0  0  0  0  0  0  0  0  0  0  0  0
   -3.3358    4.5472   -1.9793 C   0  0  0  0  0  0  0  0  0  0  0  0
   -4.3126    5.4264   -1.6853 C   0  0  0  0  0  0  0  0  0  0  0  0
   -5.5521    5.4792   -2.5285 C   0  0  0  0  0  0  0  0  0  0  0  0
   -2.0766    4.5083   -1.1418 C   0  0  0  0  0  0  0  0  0  0  0  0
   -1.1113    5.2202   -1.4778 O   0  0  0  0  0  0  0  0  0  0  0  0
   -2.0222    3.6419    0.0424 N   0  0  0  0  0  0  0  0  0  0  0  0
   -0.8528    3.5767    0.9111 C   0  0  0  0  0  0  0  0  0  0  0  0
   -0.4073    2.1307    1.0716 C   0  0  0  0  0  0  0  0  0  0  0  0
    0.0047    1.7668    2.1995 O   0  0  0  0  0  0  0  0  0  0  0  0
   -1.2683    4.0321    2.2786 C   0  0  0  0  0  0  0  0  0  0  0  0
   -1.7808    5.4398    2.2025 C   0  0  0  0  0  0  0  0  0  0  0  0
   -2.3512    3.1331    2.7974 C   0  0  0  0  0  0  0  0  0  0  0  0
  1  2  1  0
  1  5  1  0
  2  3  2  0
  2 12  1  0
  4  5  1  0
  4 34  1  0
  5  6  1  0
  6  7  1  0
  7  8  1  0
  8  9  1  0
  9 10  1  0
 10 11  1  0
 12 13  1  0
 13 14  1  0
 13 17  1  0
 14 15  1  0
 14 16  1  0
 17 18  2  0
 17 20  1  0
 19 21  1  0
 20 23  1  0
 21 22  1  0
 22 23  1  0
 23 25  1  0
 24 25  2  0
 25 26  1  0
 26 27  1  0
 27 28  2  0
 27 30  1  0
 28 29  1  0
 30 31  2  0
 30 32  1  0
 32 33  1  0
 33 34  1  0
 33 36  1  0
 34 35  2  0
 36 37  1  0
 36 38  1  0
M  END
>  <i_m_stars>  (75) 
2

>  <s_m_entry_id>  (75) 
1044

>  <s_m_entry_name>  (75) 
208refs.134

>  <s_m_Source_Path>  (75) 
/nfs/zone2/sindhikara/master/src/validation_scripts/tests/prime/macrocycle/BMS208

>  <s_m_Source_File>  (75) 
208refs.maegz

>  <i_m_Source_File_Index>  (75) 
134

>  <r_epik_Ionization_Penalty>  (75) 
  0.0063

>  <r_epik_Ionization_Penalty_Charging>  (75) 
  0.0000

>  <r_epik_Ionization_Penalty_Neutral>  (75) 
  0.0063

>  <r_epik_State_Penalty>  (75) 
  0.0045

>  <i_epik_Tot_Q>  (75) 
0

>  <i_lp_mmshare_version>  (75) 
32005

>  <r_pdb_PDB_RESOLUTION>  (75) 
2

>  <r_pdb_PDB_EXPDTA_PH>  (75) 
5

>  <s_user_comment>  (75) 
extended thio-ether sidechain disordered.

>  <r_f3d_energy>  (75) 
266.395626303059

>  <s_epik_Chemistry_Notes>  (75) 
This compound has an ester and may undergo hydrolysis at high or low pH.

>  <s_user_Group>  (75) 
B1

>  <s_user_mc_backbone_quality>  (75) 
B

>  <s_user_overall_b-factors>  (75) 
C

>  <s_user_ligand_name>  (75) 
STAPLED P53 PEPTIDE

>  <s_user_mc_bb_conf_conserved>  (75) 
B

>  <s_m_subgroup_title>  (75) 
208refs

>  <s_m_subgroupid>  (75) 
208refs

>  <b_m_subgroup_collapsed>  (75) 
0

$$$$
4KEL_conf1
     RDKit          3D

109115  0  0  1  0  0  0  0  0999 V2000
   -8.2775    5.6107    5.0153 N   0  0  0  0  0  0  0  0  0  0  0  0
   -8.0525    7.0579    4.9782 C   0  0  0  0  0  0  0  0  0  0  0  0
   -6.5695    7.3060    4.8247 C   0  0  0  0  0  0  0  0  0  0  0  0
   -5.8927    7.6036    5.8271 O   0  0  0  0  0  0  0  0  0  0  0  0
   -5.9502    7.1844    3.4987 N   0  0  0  0  0  0  0  0  0  0  0  0
   -4.5146    7.4005    3.3056 C   0  0  0  0  0  0  0  0  0  0  0  0
   -3.7556    6.1732    3.7570 C   0  0  0  0  0  0  0  0  0  0  0  0
   -2.8839    6.2899    4.6387 O   0  0  0  0  0  0  0  0  0  0  0  0
   -4.0457    8.5983    4.0771 C   0  0  0  0  0  0  0  0  0  0  0  0
   -4.7844    9.8163    3.6073 C   0  0  0  0  0  0  0  0  0  0  0  0
   -4.1732   11.0634    3.6607 C   0  0  0  0  0  0  0  0  0  0  0  0
   -6.0800    9.6977    3.1186 C   0  0  0  0  0  0  0  0  0  0  0  0
   -4.8577   12.1919    3.2254 C   0  0  0  0  0  0  0  0  0  0  0  0
   -6.7645   10.8263    2.6833 C   0  0  0  0  0  0  0  0  0  0  0  0
   -6.1534   12.0734    2.7366 C   0  0  0  0  0  0  0  0  0  0  0  0
   -4.0544    4.8716    3.1418 N   0  0  0  0  0  0  0  0  0  0  0  0
   -3.3425    3.6525    3.5442 C   0  0  0  0  0  0  0  0  0  0  0  0
   -1.9713    3.6749    2.9073 C   0  0  0  0  0  0  0  0  0  0  0  0
   -0.9613    3.6245    3.6404 O   0  0  0  0  0  0  0  0  0  0  0  0
   -4.1103    2.4140    3.1895 C   0  0  0  0  0  0  0  0  0  0  0  0
   -3.4663    0.9669    4.0012 S   0  0  0  0  0  0  0  0  0  0  0  0
   -1.8418    3.7725    1.4478 N   0  0  0  0  0  0  0  0  0  0  0  0
   -0.5277    3.8148    0.7993 C   0  0  0  0  0  0  0  0  0  0  0  0
    0.0804    2.4324    0.8006 C   0  0  0  0  0  0  0  0  0  0  0  0
    1.0913    2.2146    1.4982 O   0  0  0  0  0  0  0  0  0  0  0  0
    0.3789    4.7541    1.5382 C   0  0  0  0  0  0  0  0  0  0  0  0
    0.8205    5.8517    0.6162 C   0  0  0  0  0  0  0  0  0  0  0  0
    2.3156    5.8333    0.4969 C   0  0  0  0  0  0  0  0  0  0  0  0
    3.0631    5.0423    1.0658 O   0  0  0  0  0  0  0  0  0  0  0  0
    2.7535    6.7956   -0.3159 N   0  0  0  0  0  0  0  0  0  0  0  0
   -0.5339    1.3659    0.0000 N   0  0  0  0  0  0  0  0  0  0  0  0
    0.0000    0.0000    0.0000 C   0  0  0  0  0  0  0  0  0  0  0  0
   -0.5080   -0.7434    1.2140 C   0  0  0  0  0  0  0  0  0  0  0  0
   -0.1051   -0.3997    2.3455 O   0  0  0  0  0  0  0  0  0  0  0  0
    1.5000    0.0000    0.0000 C   0  0  0  0  0  0  0  0  0  0  0  0
    2.0000   -1.4142   -0.0000 C   0  0  0  0  0  0  0  0  0  0  0  0
    1.5000   -2.1213   -1.2247 C   0  0  0  0  0  0  0  0  0  0  0  0
    1.9867   -1.4331   -2.4168 N   0  0  0  0  0  0  0  0  0  0  0  0
    1.1977   -1.4539   -3.6451 C   0  0  0  0  0  0  0  0  0  0  0  0
   -0.0845   -2.1453   -3.7431 N   0  0  0  0  0  0  0  0  0  0  0  0
    1.6502   -0.8387   -4.6821 N   0  0  0  0  0  0  0  0  0  0  0  0
   -1.4617   -1.8512    1.0515 N   0  0  0  0  0  0  0  0  0  0  0  0
   -2.0076   -2.5682    2.2047 C   0  0  0  0  0  0  0  0  0  0  0  0
   -2.3745   -3.9953    1.8627 C   0  0  0  0  0  0  0  0  0  0  0  0
   -1.6495   -4.9247    2.2747 O   0  0  0  0  0  0  0  0  0  0  0  0
   -3.2542   -1.8714    2.6633 C   0  0  0  0  0  0  0  0  0  0  0  0
   -4.1790   -1.8616    1.6391 O   0  0  0  0  0  0  0  0  0  0  0  0
   -3.5709   -4.2702    1.0559 N   0  0  0  0  0  0  0  0  0  0  0  0
   -3.9752   -5.6469    0.7429 C   0  0  0  0  0  0  0  0  0  0  0  0
   -3.1463   -6.3742   -0.2836 C   0  0  0  0  0  0  0  0  0  0  0  0
   -2.1950   -5.7547   -0.8452 O   0  0  0  0  0  0  0  0  0  0  0  0
   -5.3999   -5.6205    0.2743 C   0  0  0  0  0  0  0  0  0  0  0  0
   -5.5078   -4.7599   -0.9496 C   0  0  0  0  0  0  0  0  0  0  0  0
   -6.2724   -5.0601    1.3581 C   0  0  0  0  0  0  0  0  0  0  0  0
   -6.0240   -5.5807   -2.0941 C   0  0  0  0  0  0  0  0  0  0  0  0
   -3.4169   -7.7645   -0.6605 N   0  0  0  0  0  0  0  0  0  0  0  0
   -4.5067   -8.5770   -0.0711 C   0  0  0  0  0  0  0  0  0  0  0  0
   -4.9059   -8.9211    1.3739 C   0  0  0  0  0  0  0  0  0  0  0  0
   -6.1372   -9.1608    1.5576 O   0  0  0  0  0  0  0  0  0  0  0  0
   -4.1994   -9.9785   -0.8122 C   0  0  0  0  0  0  0  0  0  0  0  0
   -3.6495   -9.5084   -2.1985 C   0  0  0  0  0  0  0  0  0  0  0  0
   -2.5917   -8.4315   -1.7257 C   0  0  0  0  0  0  0  0  0  0  0  0
   -3.9603   -8.9976    2.4744 N   0  0  0  0  0  0  0  0  0  0  0  0
   -4.4222   -9.3191    3.8683 C   0  0  0  0  0  0  0  0  0  0  0  0
   -5.4370   -8.3828    4.5540 C   0  0  0  0  0  0  0  0  0  0  0  0
   -6.4518   -8.8927    5.0600 O   0  0  0  0  0  0  0  0  0  0  0  0
   -3.0365   -9.3444    4.6400 C   0  0  0  0  0  0  0  0  0  0  0  0
   -1.9924   -9.6923    3.5258 C   0  0  0  0  0  0  0  0  0  0  0  0
   -2.4956   -8.8134    2.3069 C   0  0  0  0  0  0  0  0  0  0  0  0
   -5.1962   -6.9380    4.5732 N   0  0  0  0  0  0  0  0  0  0  0  0
   -6.1576   -6.0124    5.1768 C   0  0  0  0  0  0  0  0  0  0  0  0
   -5.4852   -4.7667    5.7145 C   0  0  0  0  0  0  0  0  0  0  0  0
   -4.5421   -4.8920    6.5206 O   0  0  0  0  0  0  0  0  0  0  0  0
   -6.8564   -6.6064    6.3638 C   0  0  0  0  0  0  0  0  0  0  0  0
   -7.8216   -5.6063    6.9278 C   0  0  0  0  0  0  0  0  0  0  0  0
   -5.8443   -6.9695    7.4097 C   0  0  0  0  0  0  0  0  0  0  0  0
   -9.2106   -6.1704    6.8809 C   0  0  0  0  0  0  0  0  0  0  0  0
   -5.9714   -3.4405    5.3088 N   0  0  0  0  0  0  0  0  0  0  0  0
   -5.4092   -2.2081    5.8823 C   0  0  0  0  0  0  0  0  0  0  0  0
   -5.9422   -2.0512    7.2939 C   0  0  0  0  0  0  0  0  0  0  0  0
   -5.1290   -1.9327    8.2325 O   0  0  0  0  0  0  0  0  0  0  0  0
   -5.7060   -0.9982    5.0457 C   0  0  0  0  0  0  0  0  0  0  0  0
   -4.7299    0.4103    5.5293 S   0  0  0  0  0  0  0  0  0  0  0  0
   -7.3896   -2.0530    7.5362 N   0  0  0  0  0  0  0  0  0  0  0  0
   -7.9507   -1.9791    8.8862 C   0  0  0  0  0  0  0  0  0  0  0  0
   -8.5989   -0.6331    9.1133 C   0  0  0  0  0  0  0  0  0  0  0  0
   -9.8157   -0.5166    8.7764 O   0  0  0  0  0  0  0  0  0  0  0  0
   -7.0696   -2.4662    9.9982 C   0  0  0  0  0  0  0  0  0  0  0  0
   -7.7897   -2.3225   11.3062 C   0  0  0  0  0  0  0  0  0  0  0  0
   -7.1691   -2.7113   12.4874 C   0  0  0  0  0  0  0  0  0  0  0  0
   -9.0775   -1.8007   11.3368 C   0  0  0  0  0  0  0  0  0  0  0  0
   -7.8363   -2.5782   13.6993 C   0  0  0  0  0  0  0  0  0  0  0  0
   -9.7447   -1.6676   12.5488 C   0  0  0  0  0  0  0  0  0  0  0  0
   -9.1241   -2.0564   13.7300 C   0  0  0  0  0  0  0  0  0  0  0  0
   -7.8887    0.5016    9.6918 N   0  0  0  0  0  0  0  0  0  0  0  0
   -8.5667    1.8341    9.8422 C   0  0  0  0  0  0  0  0  0  0  0  0
   -8.9241    2.5674    8.5333 C   0  0  0  0  0  0  0  0  0  0  0  0
  -10.0473    3.0825    8.4282 O   0  0  0  0  0  0  0  0  0  0  0  0
   -7.4658    2.6290   10.6646 C   0  0  0  0  0  0  0  0  0  0  0  0
   -6.6148    1.5015   11.3430 C   0  0  0  0  0  0  0  0  0  0  0  0
   -6.4866    0.4272   10.1745 C   0  0  0  0  0  0  0  0  0  0  0  0
   -7.9339    2.6377    7.4571 N   0  0  0  0  0  0  0  0  0  0  0  0
   -8.2232    3.3310    6.2015 C   0  0  0  0  0  0  0  0  0  0  0  0
   -7.9970    4.8227    6.2275 C   0  0  0  0  0  0  0  0  0  0  0  0
   -7.5719    5.3806    7.2597 O   0  0  0  0  0  0  0  0  0  0  0  0
   -9.6239    3.0516    5.7432 C   0  0  0  0  0  0  0  0  0  0  0  0
  -10.3866    4.3400    5.6523 C   0  0  0  0  0  0  0  0  0  0  0  0
  -10.9016    4.7891    4.6319 O   0  0  0  0  0  0  0  0  0  0  0  0
  -10.4445    4.9586    6.8322 N   0  0  0  0  0  0  0  0  0  0  0  0
  1  2  1  0
  1104  1  0
  2  3  1  0
  3  4  2  0
  3  5  1  0
  5  6  1  0
  6  7  1  0
  6  9  1  0
  7  8  2  0
  7 16  1  0
  9 10  1  0
 10 11  2  0
 10 12  1  0
 11 13  1  0
 12 14  2  0
 13 15  2  0
 14 15  1  0
 16 17  1  0
 17 18  1  0
 17 20  1  0
 18 19  2  0
 18 22  1  0
 20 21  1  0
 21 83  1  0
 22 23  1  0
 23 24  1  0
 23 26  1  0
 24 25  2  0
 24 31  1  0
 26 27  1  0
 27 28  1  0
 28 29  2  0
 28 30  1  0
 31 32  1  0
 32 33  1  0
 32 35  1  0
 33 34  2  0
 33 42  1  0
 35 36  1  0
 36 37  1  0
 37 38  1  0
 38 39  1  0
 39 40  1  0
 39 41  2  0
 42 43  1  0
 43 44  1  0
 43 46  1  0
 44 45  2  0
 44 48  1  0
 46 47  1  0
 48 49  1  0
 49 50  1  0
 49 52  1  0
 50 51  2  0
 50 56  1  0
 52 53  1  0
 52 54  1  0
 53 55  1  0
 56 57  1  0
 56 62  1  0
 57 58  1  0
 57 60  1  0
 58 59  2  0
 58 63  1  0
 60 61  1  0
 61 62  1  0
 63 64  1  0
 63 69  1  0
 64 65  1  0
 64 67  1  0
 65 66  2  0
 65 70  1  0
 67 68  1  0
 68 69  1  0
 70 71  1  0
 71 72  1  0
 71 74  1  0
 72 73  2  0
 72 78  1  0
 74 75  1  0
 74 76  1  0
 75 77  1  0
 78 79  1  0
 79 80  1  0
 79 82  1  0
 80 81  2  0
 80 84  1  0
 82 83  1  0
 84 85  1  0
 85 86  1  0
 85 88  1  0
 86 87  2  0
 86 95  1  0
 88 89  1  0
 89 90  2  0
 89 91  1  0
 90 92  1  0
 91 93  2  0
 92 94  2  0
 93 94  1  0
 95 96  1  0
 95101  1  0
 96 97  1  0
 96 99  1  0
 97 98  2  0
 97102  1  0
 99100  1  0
100101  1  0
102103  1  0
103104  1  0
103106  1  0
104105  2  0
106107  1  0
107108  2  0
107109  1  0
M  CHG  1  41   1
M  END
>  <i_m_stars>  (76) 
3

>  <s_m_entry_id>  (76) 
1056

>  <s_m_entry_name>  (76) 
208refs.146

>  <s_m_Source_Path>  (76) 
/nfs/zone2/sindhikara/master/src/validation_scripts/tests/prime/macrocycle/BMS208

>  <s_m_Source_File>  (76) 
208refs.maegz

>  <i_m_Source_File_Index>  (76) 
146

>  <r_lp_tautomer_probability>  (76) 
1

>  <r_epik_Ionization_Penalty>  (76) 
  0.0001

>  <r_epik_Ionization_Penalty_Charging>  (76) 
  0.0000

>  <r_epik_Ionization_Penalty_Neutral>  (76) 
  0.0001

>  <r_epik_State_Penalty>  (76) 
  0.0000

>  <i_epik_Tot_Q>  (76) 
1

>  <i_lp_mmshare_version>  (76) 
32003

>  <r_pdb_PDB_RESOLUTION>  (76) 
1.15

>  <r_pdb_PDB_EXPDTA_PH>  (76) 
4.6

>  <s_user_comment>  (76) 
argine side chain in pocket; no influence on conf.

>  <r_f3d_energy>  (76) 
1105.50685617739

>  <s_epik_Chemistry_Notes>  (76) 
This compound has an imine and may undergo hydrolysis.

>  <s_user_Group>  (76) 
A1

>  <s_user_mc_backbone_quality>  (76) 
B

>  <s_user_overall_b-factors>  (76) 
B

>  <s_user_ligand_name>  (76) 
MODIFIED SFTI INHIBITOR FCQR

>  <s_user_rep>  (76) 
1

>  <s_m_subgroup_title>  (76) 
208refs

>  <s_m_subgroupid>  (76) 
208refs

>  <b_m_subgroup_collapsed>  (76) 
0

$$$$
4M6E-A_conf1
     RDKit          3D

 92 97  0  0  1  0  0  0  0  0999 V2000
   -2.4284   -4.9063    1.5060 N   0  0  0  0  0  0  0  0  0  0  0  0
   -3.3596   -5.9725    1.1290 C   0  0  0  0  0  0  0  0  0  0  0  0
   -4.0262   -5.8054   -0.2183 C   0  0  0  0  0  0  0  0  0  0  0  0
   -3.7466   -4.7939   -0.9206 O   0  0  0  0  0  0  0  0  0  0  0  0
   -2.5901   -7.2600    1.1106 C   0  0  0  0  0  0  0  0  0  0  0  0
   -2.0195   -7.5210    2.4730 C   0  0  0  0  0  0  0  0  0  0  0  0
   -0.8291   -8.2263    2.6045 C   0  0  0  0  0  0  0  0  0  0  0  0
   -2.6812   -7.0576    3.6040 C   0  0  0  0  0  0  0  0  0  0  0  0
   -0.3005   -8.4682    3.8669 C   0  0  0  0  0  0  0  0  0  0  0  0
   -2.1525   -7.2995    4.8664 C   0  0  0  0  0  0  0  0  0  0  0  0
   -0.9622   -8.0048    4.9978 C   0  0  0  0  0  0  0  0  0  0  0  0
   -4.9791   -6.7948   -0.7265 N   0  0  0  0  0  0  0  0  0  0  0  0
   -5.6444   -6.6050   -2.0539 C   0  0  0  0  0  0  0  0  0  0  0  0
   -6.6949   -5.4829   -2.1099 C   0  0  0  0  0  0  0  0  0  0  0  0
   -7.8215   -5.6761   -1.6392 O   0  0  0  0  0  0  0  0  0  0  0  0
   -6.2293   -8.0557   -2.2758 C   0  0  0  0  0  0  0  0  0  0  0  0
   -6.5433   -8.5577   -0.8238 C   0  0  0  0  0  0  0  0  0  0  0  0
   -5.3214   -8.0287    0.0247 C   0  0  0  0  0  0  0  0  0  0  0  0
   -6.3207   -4.2013   -2.7239 N   0  0  0  0  0  0  0  0  0  0  0  0
   -7.2795   -3.0956   -2.7990 C   0  0  0  0  0  0  0  0  0  0  0  0
   -6.7271   -1.9141   -3.5635 C   0  0  0  0  0  0  0  0  0  0  0  0
   -5.8748   -1.1852   -3.0164 O   0  0  0  0  0  0  0  0  0  0  0  0
   -7.6086   -2.6441   -1.4070 C   0  0  0  0  0  0  0  0  0  0  0  0
   -9.0804   -2.8029   -1.1646 C   0  0  0  0  0  0  0  0  0  0  0  0
   -9.9750   -2.6896   -2.2222 C   0  0  0  0  0  0  0  0  0  0  0  0
   -9.5494   -3.0633    0.1175 C   0  0  0  0  0  0  0  0  0  0  0  0
  -11.3386   -2.8367   -1.9976 C   0  0  0  0  0  0  0  0  0  0  0  0
  -10.9131   -3.2104    0.3420 C   0  0  0  0  0  0  0  0  0  0  0  0
  -11.8077   -3.0971   -0.7155 C   0  0  0  0  0  0  0  0  0  0  0  0
   -7.1859   -1.6543   -4.9321 N   0  0  0  0  0  0  0  0  0  0  0  0
   -6.6460   -0.5434   -5.7201 C   0  0  0  0  0  0  0  0  0  0  0  0
   -5.3569   -1.0122   -6.3542 C   0  0  0  0  0  0  0  0  0  0  0  0
   -5.4071   -1.7086   -7.3874 O   0  0  0  0  0  0  0  0  0  0  0  0
   -7.6148   -0.2247   -6.8201 C   0  0  0  0  0  0  0  0  0  0  0  0
   -8.0806    1.1943   -6.6806 C   0  0  0  0  0  0  0  0  0  0  0  0
   -9.4314    1.4679   -6.5013 C   0  0  0  0  0  0  0  0  0  0  0  0
   -7.1614    2.2355   -6.7307 C   0  0  0  0  0  0  0  0  0  0  0  0
   -9.8629    2.7826   -6.3720 C   0  0  0  0  0  0  0  0  0  0  0  0
   -7.5929    3.5503   -6.6014 C   0  0  0  0  0  0  0  0  0  0  0  0
   -8.9437    3.8239   -6.4221 C   0  0  0  0  0  0  0  0  0  0  0  0
   -4.0699   -0.6499   -5.7417 N   0  0  0  0  0  0  0  0  0  0  0  0
   -2.8064   -1.0959   -6.3267 C   0  0  0  0  0  0  0  0  0  0  0  0
   -1.6116   -0.3175   -5.8315 C   0  0  0  0  0  0  0  0  0  0  0  0
   -1.0484   -0.6655   -4.7770 O   0  0  0  0  0  0  0  0  0  0  0  0
   -2.8379   -0.9400   -7.8183 C   0  0  0  0  0  0  0  0  0  0  0  0
   -1.5336   -1.4028   -8.3969 C   0  0  0  0  0  0  0  0  0  0  0  0
   -0.5863   -1.8414   -7.7502 O   0  0  0  0  0  0  0  0  0  0  0  0
   -1.5171   -1.2817   -9.7249 N   0  0  0  0  0  0  0  0  0  0  0  0
   -1.1202    0.8256   -6.6120 N   0  0  0  0  0  0  0  0  0  0  0  0
    0.0838    1.5556   -6.2166 C   0  0  0  0  0  0  0  0  0  0  0  0
   -0.1648    2.4702   -5.0460 C   0  0  0  0  0  0  0  0  0  0  0  0
    0.5714    2.3851   -4.0396 O   0  0  0  0  0  0  0  0  0  0  0  0
    0.5768    2.3613   -7.3819 C   0  0  0  0  0  0  0  0  0  0  0  0
    0.8968    1.4437   -8.5245 C   0  0  0  0  0  0  0  0  0  0  0  0
    1.9591    0.4721   -8.1032 C   0  0  0  0  0  0  0  0  0  0  0  0
    2.1289    0.0583   -6.9595 O   0  0  0  0  0  0  0  0  0  0  0  0
    2.7174    0.0985   -9.1346 N   0  0  0  0  0  0  0  0  0  0  0  0
   -1.2528    3.4552   -5.1022 N   0  0  0  0  0  0  0  0  0  0  0  0
   -1.5012    4.3788   -3.9909 C   0  0  0  0  0  0  0  0  0  0  0  0
   -2.1787    3.6708   -2.8450 C   0  0  0  0  0  0  0  0  0  0  0  0
   -3.1672    2.9437   -3.0727 O   0  0  0  0  0  0  0  0  0  0  0  0
   -2.3912    5.4869   -4.4704 C   0  0  0  0  0  0  0  0  0  0  0  0
   -1.6856    6.8006   -4.3083 C   0  0  0  0  0  0  0  0  0  0  0  0
   -1.2777    7.2193   -3.0473 C   0  0  0  0  0  0  0  0  0  0  0  0
   -1.4397    7.5991   -5.4189 C   0  0  0  0  0  0  0  0  0  0  0  0
   -0.6239    8.4366   -2.8971 C   0  0  0  0  0  0  0  0  0  0  0  0
   -0.7859    8.8163   -5.2687 C   0  0  0  0  0  0  0  0  0  0  0  0
   -0.3780    9.2350   -4.0078 C   0  0  0  0  0  0  0  0  0  0  0  0
    0.2712   10.4436   -3.8586 O   0  0  0  0  0  0  0  0  0  0  0  0
   -1.6730    3.8505   -1.4770 N   0  0  0  0  0  0  0  0  0  0  0  0
   -2.2979    3.1664   -0.3398 C   0  0  0  0  0  0  0  0  0  0  0  0
   -1.8580    1.7214   -0.3427 C   0  0  0  0  0  0  0  0  0  0  0  0
   -2.6786    0.8304   -0.6373 O   0  0  0  0  0  0  0  0  0  0  0  0
   -3.7935    3.2460   -0.4229 C   0  0  0  0  0  0  0  0  0  0  0  0
   -4.3980    2.5378    0.7531 C   0  0  0  0  0  0  0  0  0  0  0  0
   -4.2189    4.6844   -0.4132 C   0  0  0  0  0  0  0  0  0  0  0  0
   -0.4692    1.3875   -0.0000 N   0  0  0  0  0  0  0  0  0  0  0  0
    0.0000    0.0000    0.0000 C   0  0  0  0  0  0  0  0  0  0  0  0
    1.5000    0.0000    0.0000 C   0  0  0  0  0  0  0  0  0  0  0  0
    2.0000    0.7071   -1.2247 C   0  0  0  0  0  0  0  0  0  0  0  0
    2.8333   -0.2357   -2.0412 C   0  0  0  0  0  0  0  0  0  0  0  0
    3.3200    0.4525   -3.2333 N   0  0  0  0  0  0  0  0  0  0  0  0
   -0.4824   -0.7029    1.2457 C   0  0  0  0  0  0  0  0  0  0  0  0
   -0.0525   -0.3394    2.3590 O   0  0  0  0  0  0  0  0  0  0  0  0
   -1.4476   -1.8085    1.1342 N   0  0  0  0  0  0  0  0  0  0  0  0
   -1.9174   -2.5208    2.3272 C   0  0  0  0  0  0  0  0  0  0  0  0
   -2.9123   -3.6082    1.9960 C   0  0  0  0  0  0  0  0  0  0  0  0
   -4.1307   -3.3835    2.1288 O   0  0  0  0  0  0  0  0  0  0  0  0
   -2.5609   -1.5381    3.2601 C   0  0  0  0  0  0  0  0  0  0  0  0
   -1.8294   -1.5389    4.5696 C   0  0  0  0  0  0  0  0  0  0  0  0
   -1.8852   -2.9111    5.1727 C   0  0  0  0  0  0  0  0  0  0  0  0
   -2.4729   -0.5562    5.5024 C   0  0  0  0  0  0  0  0  0  0  0  0
  1  2  1  0
  1 87  1  0
  2  3  1  0
  2  5  1  0
  3  4  2  0
  3 12  1  0
  5  6  1  0
  6  7  2  0
  6  8  1  0
  7  9  1  0
  8 10  2  0
  9 11  2  0
 10 11  1  0
 12 13  1  0
 12 18  1  0
 13 14  1  0
 13 16  1  0
 14 15  2  0
 14 19  1  0
 16 17  1  0
 17 18  1  0
 19 20  1  0
 20 21  1  0
 20 23  1  0
 21 22  2  0
 21 30  1  0
 23 24  1  0
 24 25  2  0
 24 26  1  0
 25 27  1  0
 26 28  2  0
 27 29  2  0
 28 29  1  0
 30 31  1  0
 31 32  1  0
 31 34  1  0
 32 33  2  0
 32 41  1  0
 34 35  1  0
 35 36  2  0
 35 37  1  0
 36 38  1  0
 37 39  2  0
 38 40  2  0
 39 40  1  0
 41 42  1  0
 42 43  1  0
 42 45  1  0
 43 44  2  0
 43 49  1  0
 45 46  1  0
 46 47  2  0
 46 48  1  0
 49 50  1  0
 50 51  1  0
 50 53  1  0
 51 52  2  0
 51 58  1  0
 53 54  1  0
 54 55  1  0
 55 56  2  0
 55 57  1  0
 58 59  1  0
 59 60  1  0
 59 62  1  0
 60 61  2  0
 60 70  1  0
 62 63  1  0
 63 64  2  0
 63 65  1  0
 64 66  1  0
 65 67  2  0
 66 68  2  0
 67 68  1  0
 68 69  1  0
 70 71  1  0
 71 72  1  0
 71 74  1  0
 72 73  2  0
 72 77  1  0
 74 75  1  0
 74 76  1  0
 77 78  1  0
 78 79  1  0
 78 83  1  0
 79 80  1  0
 80 81  1  0
 81 82  1  0
 83 84  2  0
 83 85  1  0
 85 86  1  0
 86 87  1  0
 86 89  1  0
 87 88  2  0
 89 90  1  0
 90 91  1  0
 90 92  1  0
M  CHG  1  82   1
M  END
>  <i_m_stars>  (77) 
3

>  <s_m_entry_id>  (77) 
1049

>  <s_m_entry_name>  (77) 
208refs.139

>  <s_m_Source_Path>  (77) 
/nfs/zone2/sindhikara/master/src/validation_scripts/tests/prime/macrocycle/BMS208

>  <s_m_Source_File>  (77) 
208refs.maegz

>  <i_m_Source_File_Index>  (77) 
139

>  <r_lp_tautomer_probability>  (77) 
1

>  <r_epik_Ionization_Penalty>  (77) 
  0.0016

>  <r_epik_Ionization_Penalty_Charging>  (77) 
  0.0007

>  <r_epik_Ionization_Penalty_Neutral>  (77) 
  0.0009

>  <r_epik_State_Penalty>  (77) 
  0.0000

>  <i_epik_Tot_Q>  (77) 
1

>  <i_lp_mmshare_version>  (77) 
32003

>  <r_pdb_PDB_RESOLUTION>  (77) 
0.95

>  <s_user_comment>  (77) 
alt positions of leu. cation involved in intramol.  H bond

>  <r_f3d_energy>  (77) 
435.991064612247

>  <s_user_Group>  (77) 
A1

>  <s_user_mc_backbone_quality>  (77) 
A

>  <s_user_overall_b-factors>  (77) 
A

>  <s_user_ligand_name>  (77) 
tyrocidine A

>  <s_user_mc_bb_conf_conserved>  (77) 
A

>  <s_user_rep>  (77) 
1

>  <s_m_subgroup_title>  (77) 
208refs

>  <s_m_subgroupid>  (77) 
208refs

>  <b_m_subgroup_collapsed>  (77) 
0

$$$$
4MNW_conf1
     RDKit          3D

119123  0  0  1  0  0  0  0  0999 V2000
   -2.4660   -0.2894   -0.6883 N   0  0  0  0  0  0  0  0  0  0  0  0
   -2.1444    0.9574   -0.0000 C   0  0  0  0  0  0  0  0  0  0  0  0
   -0.6581    1.1596    0.0000 C   0  0  0  0  0  0  0  0  0  0  0  0
   -0.0909    2.2482    0.0000 O   0  0  0  0  0  0  0  0  0  0  0  0
   -2.6399    0.8900    1.4142 C   0  0  0  0  0  0  0  0  0  0  0  0
   -2.3095    2.1710    2.1213 C   0  0  0  0  0  0  0  0  0  0  0  0
   -0.8232    2.3732    2.1213 C   0  0  0  0  0  0  0  0  0  0  0  0
    0.0141    1.4756    2.1213 O   0  0  0  0  0  0  0  0  0  0  0  0
   -0.4987    3.6664    2.1213 N   0  0  0  0  0  0  0  0  0  0  0  0
    0.0000    0.0000    0.0000 N   0  0  0  0  0  0  0  0  0  0  0  0
    1.4600    0.0000    0.0000 C   0  0  0  0  0  0  0  0  0  0  0  0
    1.9398    0.7766   -1.2074 C   0  0  0  0  0  0  0  0  0  0  0  0
    1.1459    1.0104   -2.1375 O   0  0  0  0  0  0  0  0  0  0  0  0
    1.9965   -1.3931   -0.0000 C   0  0  0  0  0  0  0  0  0  0  0  0
    1.1393   -2.4029   -1.1923 S   0  0  0  0  0  0  0  0  0  0  0  0
    3.3358    1.2371   -1.2588 N   0  0  0  0  0  0  0  0  0  0  0  0
    3.8407    1.9914   -2.4083 C   0  0  0  0  0  0  0  0  0  0  0  0
    5.3498    2.0613   -2.4356 C   0  0  0  0  0  0  0  0  0  0  0  0
    5.9452    2.6624   -1.5169 O   0  0  0  0  0  0  0  0  0  0  0  0
    3.3090    3.3916   -2.3262 C   0  0  0  0  0  0  0  0  0  0  0  0
    2.4901    3.6878   -3.5475 C   0  0  0  0  0  0  0  0  0  0  0  0
    1.4158    4.5532   -3.5951 C   0  0  0  0  0  0  0  0  0  0  0  0
    2.6612    3.1442   -4.8632 C   0  0  0  0  0  0  0  0  0  0  0  0
    0.9159    4.5701   -4.8753 N   0  0  0  0  0  0  0  0  0  0  0  0
    1.6457    3.7243   -5.6846 C   0  0  0  0  0  0  0  0  0  0  0  0
    3.5584    2.2322   -5.4407 C   0  0  0  0  0  0  0  0  0  0  0  0
    1.5157    3.4144   -7.0422 C   0  0  0  0  0  0  0  0  0  0  0  0
    3.4286    1.9233   -6.7952 C   0  0  0  0  0  0  0  0  0  0  0  0
    2.4296    2.5026   -7.5745 C   0  0  0  0  0  0  0  0  0  0  0  0
    6.0954    1.4250   -3.5325 N   0  0  0  0  0  0  0  0  0  0  0  0
    7.5562    1.5056   -3.5995 C   0  0  0  0  0  0  0  0  0  0  0  0
    8.0954    1.1960   -4.9780 C   0  0  0  0  0  0  0  0  0  0  0  0
    8.9754    0.3252   -5.1061 O   0  0  0  0  0  0  0  0  0  0  0  0
    8.1618    0.5627   -2.6023 C   0  0  0  0  0  0  0  0  0  0  0  0
    9.6574    0.6500   -2.6759 C   0  0  0  0  0  0  0  0  0  0  0  0
   10.3266   -0.3613   -2.9612 O   0  0  0  0  0  0  0  0  0  0  0  0
   10.2294    1.7338   -2.4515 O   0  0  0  0  0  0  0  0  0  0  0  0
    7.5804    1.9337   -6.1388 N   0  0  0  0  0  0  0  0  0  0  0  0
    8.1093    1.7342   -7.4803 C   0  0  0  0  0  0  0  0  0  0  0  0
    7.4863    0.6638   -8.3366 C   0  0  0  0  0  0  0  0  0  0  0  0
    8.2359   -0.0077   -9.0869 O   0  0  0  0  0  0  0  0  0  0  0  0
    9.5937    1.5201   -7.4522 C   0  0  0  0  0  0  0  0  0  0  0  0
   10.2686    2.5909   -8.2571 C   0  0  0  0  0  0  0  0  0  0  0  0
    9.9460    3.9341   -7.6724 C   0  0  0  0  0  0  0  0  0  0  0  0
   10.6030    4.9764   -8.4558 N   0  0  0  0  0  0  0  0  0  0  0  0
    9.9139    5.5780   -9.5937 C   0  0  0  0  0  0  0  0  0  0  0  0
    8.5686    5.1836  -10.0013 N   0  0  0  0  0  0  0  0  0  0  0  0
   10.5316    6.5155  -10.2811 N   0  0  0  0  0  0  0  0  0  0  0  0
    6.0350    0.4437   -8.3338 N   0  0  0  0  0  0  0  0  0  0  0  0
    5.3923   -0.4834   -9.2634 C   0  0  0  0  0  0  0  0  0  0  0  0
    5.1279   -1.8796   -8.7603 C   0  0  0  0  0  0  0  0  0  0  0  0
    3.9457   -2.2353   -8.5748 O   0  0  0  0  0  0  0  0  0  0  0  0
    6.2414   -2.8147   -8.5651 N   0  0  0  0  0  0  0  0  0  0  0  0
    6.0656   -4.2197   -8.2107 C   0  0  0  0  0  0  0  0  0  0  0  0
    5.7717   -5.0780   -9.4246 C   0  0  0  0  0  0  0  0  0  0  0  0
    4.9509   -4.6850  -10.2782 O   0  0  0  0  0  0  0  0  0  0  0  0
    5.2367   -4.6640   -7.0667 C   0  0  0  0  0  0  0  0  0  0  0  0
    5.5248   -3.7167   -5.5902 S   0  0  0  0  0  0  0  0  0  0  0  0
    6.4474   -6.3788   -9.5830 N   0  0  0  0  0  0  0  0  0  0  0  0
    6.1841   -7.2147  -10.7598 C   0  0  0  0  0  0  0  0  0  0  0  0
    7.0404   -8.4501  -10.8488 C   0  0  0  0  0  0  0  0  0  0  0  0
    8.2631   -8.3764  -10.6133 O   0  0  0  0  0  0  0  0  0  0  0  0
    6.3931   -6.3829  -11.9904 C   0  0  0  0  0  0  0  0  0  0  0  0
    5.1182   -6.3270  -12.7787 C   0  0  0  0  0  0  0  0  0  0  0  0
    5.3491   -6.9027  -14.1444 C   0  0  0  0  0  0  0  0  0  0  0  0
    6.1943   -6.3888  -14.9017 O   0  0  0  0  0  0  0  0  0  0  0  0
    4.6954   -7.8943  -14.5204 O   0  0  0  0  0  0  0  0  0  0  0  0
    6.4262   -9.7340  -11.2295 N   0  0  0  0  0  0  0  0  0  0  0  0
    7.2336  -10.9540  -11.3418 C   0  0  0  0  0  0  0  0  0  0  0  0
    6.3780  -12.1843  -11.5268 C   0  0  0  0  0  0  0  0  0  0  0  0
    5.7650  -12.3415  -12.6016 O   0  0  0  0  0  0  0  0  0  0  0  0
    8.0752  -11.1151  -10.1106 C   0  0  0  0  0  0  0  0  0  0  0  0
    8.8994  -12.3628  -10.2281 C   0  0  0  0  0  0  0  0  0  0  0  0
    8.8534  -13.3177   -9.4582 O   0  0  0  0  0  0  0  0  0  0  0  0
    9.7096  -12.3240  -11.2863 N   0  0  0  0  0  0  0  0  0  0  0  0
    6.2632  -13.1644  -10.4403 N   0  0  0  0  0  0  0  0  0  0  0  0
    5.3884  -14.3360  -10.5601 C   0  0  0  0  0  0  0  0  0  0  0  0
    3.9646  -13.8738  -10.3377 C   0  0  0  0  0  0  0  0  0  0  0  0
    3.1240  -14.0266  -11.2424 O   0  0  0  0  0  0  0  0  0  0  0  0
    5.7489  -15.3203   -9.4871 C   0  0  0  0  0  0  0  0  0  0  0  0
    4.8625  -16.5255   -9.5959 C   0  0  0  0  0  0  0  0  0  0  0  0
    5.2230  -17.5097   -8.5229 C   0  0  0  0  0  0  0  0  0  0  0  0
    6.6166  -17.9146   -8.6823 N   0  0  0  0  0  0  0  0  0  0  0  0
    7.6755  -17.1663   -8.0113 C   0  0  0  0  0  0  0  0  0  0  0  0
    7.4094  -16.0047   -7.1678 N   0  0  0  0  0  0  0  0  0  0  0  0
    8.9226  -17.5551   -8.1738 N   0  0  0  0  0  0  0  0  0  0  0  0
    3.6030  -13.2446   -9.0587 N   0  0  0  0  0  0  0  0  0  0  0  0
    2.2493  -12.7417   -8.8144 C   0  0  0  0  0  0  0  0  0  0  0  0
    2.2085  -11.7654   -7.6593 C   0  0  0  0  0  0  0  0  0  0  0  0
    3.0750  -10.8706   -7.5869 O   0  0  0  0  0  0  0  0  0  0  0  0
    1.3173  -13.8823   -8.5311 C   0  0  0  0  0  0  0  0  0  0  0  0
    2.0764  -15.1747   -8.5900 C   0  0  0  0  0  0  0  0  0  0  0  0
    1.1443  -16.3154   -8.3067 C   0  0  0  0  0  0  0  0  0  0  0  0
    1.9034  -17.6078   -8.3655 C   0  0  0  0  0  0  0  0  0  0  0  0
    2.9699  -17.5916   -7.3685 N   0  0  0  0  0  0  0  0  0  0  0  0
    1.1555  -11.8809   -6.6435 N   0  0  0  0  0  0  0  0  0  0  0  0
    1.0880  -10.9599   -5.5041 C   0  0  0  0  0  0  0  0  0  0  0  0
    0.2233  -11.5932   -4.4546 C   0  0  0  0  0  0  0  0  0  0  0  0
   -0.4707  -10.9841   -3.6459 O   0  0  0  0  0  0  0  0  0  0  0  0
    0.4805   -9.6503   -5.8983 C   0  0  0  0  0  0  0  0  0  0  0  0
    0.6162   -8.5009   -4.5404 S   0  0  0  0  0  0  0  0  0  0  0  0
    0.2901  -12.9243   -4.4941 N   0  0  0  0  0  0  0  0  0  0  0  0
   -0.4878  -13.7133   -3.5434 C   0  0  0  0  0  0  0  0  0  0  0  0
    0.3289  -13.9562   -2.3089 C   0  0  0  0  0  0  0  0  0  0  0  0
   -0.0445  -14.5881   -1.3250 O   0  0  0  0  0  0  0  0  0  0  0  0
   -0.8549  -15.0274   -4.1666 C   0  0  0  0  0  0  0  0  0  0  0  0
   -2.3484  -15.1573   -4.2165 C   0  0  0  0  0  0  0  0  0  0  0  0
   -2.9703  -16.2141   -4.1600 O   0  0  0  0  0  0  0  0  0  0  0  0
   -2.9456  -13.9708   -4.3320 N   0  0  0  0  0  0  0  0  0  0  0  0
    1.5366  -13.3978   -2.3955 N   0  0  0  0  0  0  0  0  0  0  0  0
    1.8114   -6.1247   -4.2300 C   0  0  0  0  0  0  0  0  0  0  0  0
    1.2727   -5.5078   -3.0401 C   0  0  0  0  0  0  0  0  0  0  0  0
    2.1149   -4.6673   -2.2218 C   0  0  0  0  0  0  0  0  0  0  0  0
    3.4652   -4.3749   -2.6457 C   0  0  0  0  0  0  0  0  0  0  0  0
    4.0347   -5.0715   -3.7777 C   0  0  0  0  0  0  0  0  0  0  0  0
    3.2259   -6.0201   -4.5084 C   0  0  0  0  0  0  0  0  0  0  0  0
    0.9045   -6.8615   -5.1713 C   0  0  0  0  0  0  0  0  0  0  0  0
    1.5976   -4.1031   -0.9317 C   0  0  0  0  0  0  0  0  0  0  0  0
    5.4557   -4.8175   -4.1854 C   0  0  0  0  0  0  0  0  0  0  0  0
  1  2  1  0
  2  3  1  0
  2  5  1  0
  3  4  2  0
  3 10  1  0
  5  6  1  0
  6  7  1  0
  7  8  2  0
  7  9  1  0
 10 11  1  0
 11 12  1  0
 11 14  1  0
 12 13  2  0
 12 16  1  0
 14 15  1  0
 15118  1  0
 16 17  1  0
 17 18  1  0
 17 20  1  0
 18 19  2  0
 18 30  1  0
 20 21  1  0
 21 22  2  0
 21 23  1  0
 22 24  1  0
 23 25  2  0
 23 26  1  0
 24 25  1  0
 25 27  1  0
 26 28  2  0
 27 29  2  0
 28 29  1  0
 30 31  1  0
 31 32  1  0
 31 34  1  0
 32 33  2  0
 32 38  1  0
 34 35  1  0
 35 36  2  0
 35 37  1  0
 38 39  1  0
 39 40  1  0
 39 42  1  0
 40 41  2  0
 40 49  1  0
 42 43  1  0
 43 44  1  0
 44 45  1  0
 45 46  1  0
 46 47  1  0
 46 48  2  0
 49 50  1  0
 50 51  1  0
 51 52  2  0
 51 53  1  0
 53 54  1  0
 54 55  1  0
 54 57  1  0
 55 56  2  0
 55 59  1  0
 57 58  1  0
 58119  1  0
 59 60  1  0
 60 61  1  0
 60 63  1  0
 61 62  2  0
 61 68  1  0
 63 64  1  0
 64 65  1  0
 65 66  2  0
 65 67  1  0
 68 69  1  0
 69 70  1  0
 69 72  1  0
 70 71  2  0
 70 76  1  0
 72 73  1  0
 73 74  2  0
 73 75  1  0
 76 77  1  0
 77 78  1  0
 77 80  1  0
 78 79  2  0
 78 87  1  0
 80 81  1  0
 81 82  1  0
 82 83  1  0
 83 84  1  0
 84 85  1  0
 84 86  2  0
 87 88  1  0
 88 89  1  0
 88 91  1  0
 89 90  2  0
 89 96  1  0
 91 92  1  0
 92 93  1  0
 93 94  1  0
 94 95  1  0
 96 97  1  0
 97 98  1  0
 97100  1  0
 98 99  2  0
 98102  1  0
100101  1  0
101117  1  0
102103  1  0
103104  1  0
103106  1  0
104105  2  0
104110  1  0
106107  1  0
107108  2  0
107109  1  0
111112  2  0
111116  1  0
111117  1  0
112113  1  0
113114  2  0
113118  1  0
114115  1  0
115116  2  0
115119  1  0
M  CHG  6   1   1  37  -1  48   1  67  -1  86   1  95   1
M  END
>  <i_m_stars>  (78) 
2

>  <s_m_entry_id>  (78) 
1041

>  <s_m_entry_name>  (78) 
208refs.131

>  <s_m_Source_Path>  (78) 
/nfs/zone2/sindhikara/master/src/validation_scripts/tests/prime/macrocycle/BMS208

>  <s_m_Source_File>  (78) 
208refs.maegz

>  <i_m_Source_File_Index>  (78) 
131

>  <r_lp_tautomer_probability>  (78) 
0.999999866000018

>  <r_epik_Ionization_Penalty>  (78) 
  0.2654

>  <r_epik_Ionization_Penalty_Charging>  (78) 
  0.2650

>  <r_epik_Ionization_Penalty_Neutral>  (78) 
  0.0004

>  <r_epik_State_Penalty>  (78) 
  0.2523

>  <i_epik_Tot_Q>  (78) 
2

>  <i_lp_mmshare_version>  (78) 
32005

>  <r_pdb_PDB_RESOLUTION>  (78) 
1.49

>  <r_pdb_PDB_EXPDTA_PH>  (78) 
4.5

>  <s_user_comment>  (78) 
4 formal charges; temp factors of 3 solv. exposed sc's high; mc backbone is good

>  <r_f3d_energy>  (78) 
1737.58354513366

>  <s_epik_Chemistry_Notes>  (78) 
This compound has an imine and may undergo hydrolysis.

>  <s_user_Group>  (78) 
B1

>  <s_user_mc_backbone_quality>  (78) 
A

>  <s_user_overall_b-factors>  (78) 
C

>  <s_user_ligand_name>  (78) 
BICYCLIC PEPTIDE UK749

>  <s_m_subgroup_title>  (78) 
208refs

>  <s_m_subgroupid>  (78) 
208refs

>  <b_m_subgroup_collapsed>  (78) 
0

$$$$
AAGGAG10
     RDKit          3D

 27 27  0  0  0  0  0  0  0  0999 V2000
    1.6698    6.7804    2.7906 O   0  0  0  0  0  0  0  0  0  0  0  0
    1.9243    5.7857    6.9580 O   0  0  0  0  0  0  0  0  0  0  0  0
    6.0340    4.4319    5.8088 O   0  0  0  0  0  0  0  0  0  0  0  0
    8.8883    7.3081    4.6183 O   0  0  0  0  0  0  0  0  0  0  0  0
    8.1370    4.8692    0.8105 O   0  0  0  0  0  0  0  0  0  0  0  0
    4.8383    5.5908    2.7918 O   0  0  0  0  0  0  0  0  0  0  0  0
    3.7214    4.3079    1.3048 N   0  0  0  0  0  0  0  0  0  0  0  0
    1.9288    4.6545    3.5107 N   0  0  0  0  0  0  0  0  0  0  0  0
    3.5810    5.6776    5.4271 N   0  0  0  0  0  0  0  0  0  0  0  0
    6.9427    6.3604    6.5488 N   0  0  0  0  0  0  0  0  0  0  0  0
    9.0655    5.0909    4.2948 N   0  0  0  0  0  0  0  0  0  0  0  0
    7.1211    4.0857    2.6556 N   0  0  0  0  0  0  0  0  0  0  0  0
    2.5906    5.2218    1.2268 C   0  0  2  0  0  0  0  0  0  0  0  0
    2.0508    5.6250    2.5924 C   0  0  0  0  0  0  0  0  0  0  0  0
    1.4808    4.5613    0.4162 C   0  0  0  0  0  0  0  0  0  0  0  0
    1.3267    4.9203    4.8135 C   0  0  2  0  0  0  0  0  0  0  0  0
    2.3192    5.4911    5.8204 C   0  0  0  0  0  0  0  0  0  0  0  0
    0.6862    3.6568    5.3727 C   0  0  0  0  0  0  0  0  0  0  0  0
    4.5720    6.2989    6.2760 C   0  0  0  0  0  0  0  0  0  0  0  0
    5.9120    5.5997    6.1722 C   0  0  0  0  0  0  0  0  0  0  0  0
    8.3270    5.9017    6.4569 C   0  0  0  0  0  0  0  0  0  0  0  0
    8.8130    6.1650    5.0460 C   0  0  0  0  0  0  0  0  0  0  0  0
    9.3040    5.1965    2.8640 C   0  0  2  0  0  0  0  0  0  0  0  0
    8.1156    4.7076    2.0305 C   0  0  0  0  0  0  0  0  0  0  0  0
   10.5773    4.4715    2.4609 C   0  0  0  0  0  0  0  0  0  0  0  0
    5.9429    3.6131    1.9580 C   0  0  0  0  0  0  0  0  0  0  0  0
    4.7972    4.6099    2.0503 C   0  0  0  0  0  0  0  0  0  0  0  0
  1 14  2  0
  2 17  2  0
  3 20  2  0
  4 22  2  0
  5 24  2  0
  6 27  2  0
  7 13  1  0
  8 14  1  0
  9 17  1  0
 10 20  1  0
 11 22  1  0
 12 24  1  0
 13 14  1  0
 13 15  1  6
 16  8  1  0
 17 16  1  0
 16 18  1  1
 19  9  1  0
 20 19  1  0
 21 10  1  0
 22 21  1  0
 23 11  1  0
 24 23  1  0
 23 25  1  6
 26 12  1  0
 27  7  1  0
 26 27  1  0
M  END
>  <_TriposChargeType>  (79) 
NO_CHARGES

$$$$
ACOPUF
     RDKit          3D

 22 23  0  0  0  0  0  0  0  0999 V2000
    5.0004    4.6032   12.0366 Cl  0  0  0  0  0  0  0  0  0  0  0  0
    2.7563    3.4736    3.5571 O   0  0  0  0  0  0  0  0  0  0  0  0
    2.0189    2.3191    6.4856 O   0  0  0  0  0  0  0  0  0  0  0  0
    3.4302    2.7158    4.2205 C   0  0  0  0  0  0  0  0  0  0  0  0
    4.0184    3.1634    5.5498 C   0  0  2  0  0  0  0  0  0  0  0  0
    5.5491    3.1251    5.5426 C   0  0  0  0  0  0  0  0  0  0  0  0
    6.1862    4.1073    4.5747 C   0  0  0  0  0  0  0  0  0  0  0  0
    7.6854    3.8849    4.3839 C   0  0  0  0  0  0  0  0  0  0  0  0
    8.0463    2.6667    3.5548 C   0  0  0  0  0  0  0  0  0  0  0  0
    7.7337    2.8087    2.0693 C   0  0  0  0  0  0  0  0  0  0  0  0
    7.3909    1.5149    1.3518 C   0  0  0  0  0  0  0  0  0  0  0  0
    6.1228    0.8419    1.8339 C   0  0  0  0  0  0  0  0  0  0  0  0
    4.8376    1.6078    1.5544 C   0  0  0  0  0  0  0  0  0  0  0  0
    3.6215    1.0613    2.2800 C   0  0  0  0  0  0  0  0  0  0  0  0
    3.6519    1.2908    3.7783 C   0  0  0  0  0  0  0  0  0  0  0  0
    3.4247    2.3227    6.6892 C   0  0  1  0  0  0  0  0  0  0  0  0
    3.7985    2.8716    8.0454 C   0  0  0  0  0  0  0  0  0  0  0  0
    4.6197    2.1711    8.9100 C   0  0  0  0  0  0  0  0  0  0  0  0
    4.9795    2.6840   10.1437 C   0  0  0  0  0  0  0  0  0  0  0  0
    4.5211    3.9257   10.5081 C   0  0  0  0  0  0  0  0  0  0  0  0
    3.6875    4.6418    9.6776 C   0  0  0  0  0  0  0  0  0  0  0  0
    3.3340    4.1145    8.4542 C   0  0  0  0  0  0  0  0  0  0  0  0
  1 20  1  0
  2  4  2  0
  5  4  1  0
  5  6  1  6
  7  6  1  0
  8  7  1  0
  9  8  1  0
 10  9  1  0
 11 10  1  0
 12 11  1  0
 13 12  1  0
 14 13  1  0
 15  4  1  0
 16  3  1  6
 17 16  1  0
 18 17  2  0
 19 18  1  0
 20 19  2  0
 21 20  1  0
 22 17  1  0
  5 16  1  0
 14 15  1  0
 21 22  2  0
M  END
>  <_TriposChargeType>  (80) 
NO_CHARGES

$$$$
ADEZIU
     RDKit          3D

 33 35  0  0  0  0  0  0  0  0999 V2000
    3.9146   13.8660    5.8623 Br  0  0  0  0  0  0  0  0  0  0  0  0
   -4.2330    9.7332   15.8785 Br  0  0  0  0  0  0  0  0  0  0  0  0
    1.3044    8.4625    7.5233 O   0  0  0  0  0  0  0  0  0  0  0  0
   -0.0952    7.6954    9.0993 O   0  0  0  0  0  0  0  0  0  0  0  0
   -0.1950   11.5953   10.3982 O   0  0  0  0  0  0  0  0  0  0  0  0
    0.4364    9.9397    8.9596 N   0  0  0  0  0  0  0  0  0  0  0  0
   -1.0459    9.5001   10.7219 N   0  0  0  0  0  0  0  0  0  0  0  0
    3.9189    8.1979    4.3049 C   0  0  0  0  0  0  0  0  0  0  0  0
    3.4392    9.5780    4.0498 C   0  0  0  0  0  0  0  0  0  0  0  0
    4.0416   10.6065    3.4908 C   0  0  0  0  0  0  0  0  0  0  0  0
    5.4789   10.6756    2.9948 C   0  0  0  0  0  0  0  0  0  0  0  0
    6.5056   10.9933    4.0750 C   0  0  0  0  0  0  0  0  0  0  0  0
    6.6440    9.8794    5.0323 C   0  0  0  0  0  0  0  0  0  0  0  0
    5.8805    9.7061    6.0952 C   0  0  0  0  0  0  0  0  0  0  0  0
    5.7687    8.3787    6.8321 C   0  0  0  0  0  0  0  0  0  0  0  0
    4.3630    7.7948    6.7423 C   0  0  0  0  0  0  0  0  0  0  0  0
    3.5780    7.7320    5.7220 C   0  0  0  0  0  0  0  0  0  0  0  0
    2.1886    7.1292    5.7566 C   0  0  0  0  0  0  0  0  0  0  0  0
    1.5052    7.0827    7.0903 C   0  0  0  0  0  0  0  0  0  0  0  0
    0.4952    8.6047    8.5704 C   0  0  0  0  0  0  0  0  0  0  0  0
    1.2491   10.9192    8.2571 C   0  0  0  0  0  0  0  0  0  0  0  0
    0.6980   11.6551    7.2304 C   0  0  0  0  0  0  0  0  0  0  0  0
    1.4899   12.5316    6.5124 C   0  0  0  0  0  0  0  0  0  0  0  0
    2.8151   12.6698    6.8588 C   0  0  0  0  0  0  0  0  0  0  0  0
    3.3731   11.9615    7.9028 C   0  0  0  0  0  0  0  0  0  0  0  0
    2.5761   11.0649    8.5987 C   0  0  0  0  0  0  0  0  0  0  0  0
   -0.2941   10.4282   10.0851 C   0  0  0  0  0  0  0  0  0  0  0  0
   -1.8348    9.6496   11.8802 C   0  0  0  0  0  0  0  0  0  0  0  0
   -2.0126   10.8489   12.5588 C   0  0  0  0  0  0  0  0  0  0  0  0
   -2.7501   10.8664   13.7366 C   0  0  0  0  0  0  0  0  0  0  0  0
   -3.2973    9.7048   14.2247 C   0  0  0  0  0  0  0  0  0  0  0  0
   -3.1590    8.5131   13.5413 C   0  0  0  0  0  0  0  0  0  0  0  0
   -2.4221    8.4917   12.3809 C   0  0  0  0  0  0  0  0  0  0  0  0
  1 24  1  0
  2 31  1  0
  3 19  1  0
  4 20  2  0
  5 27  2  0
  6 20  1  0
  9  8  1  0
 10  9  2  0
 11 10  1  0
 12 11  1  0
 13 12  1  0
 14 13  2  0
 15 14  1  0
 16 15  1  0
 17  8  1  0
 18 17  1  0
 19 18  1  0
 20  3  1  0
 21  6  1  0
 22 21  2  0
 23 22  1  0
 24 23  2  0
 25 24  1  0
 26 21  1  0
 27  6  1  0
 28  7  1  0
 29 28  2  0
 30 29  1  0
 31 30  2  0
 32 31  1  0
 33 28  1  0
  7 27  1  0
 16 17  2  0
 25 26  2  0
 32 33  2  0
M  END
>  <_TriposChargeType>  (81) 
NO_CHARGES

$$$$
AFUTOL
     RDKit          3D

 21 21  0  0  0  0  0  0  0  0999 V2000
    5.3271    1.8099   26.4013 C   0  0  1  0  0  0  0  0  0  0  0  0
    5.2459    0.8488   25.2128 C   0  0  0  0  0  0  0  0  0  0  0  0
    3.9197    0.8423   24.4544 C   0  0  0  0  0  0  0  0  0  0  0  0
    3.9197   -0.1361   23.2778 C   0  0  1  0  0  0  0  0  0  0  0  0
    4.1433   -1.6027   23.6968 C   0  0  0  0  0  0  0  0  0  0  0  0
    3.0880   -2.0372   24.6727 C   0  0  0  0  0  0  0  0  0  0  0  0
    3.5989   -2.6510   25.7453 O   0  0  0  0  0  0  0  0  0  0  0  0
    2.6853   -2.9852   26.8154 C   0  0  0  0  0  0  0  0  0  0  0  0
    3.1097   -2.2371   28.0835 C   0  0  1  0  0  0  0  0  0  0  0  0
    3.1809   -0.7595   27.8039 C   0  0  0  0  0  0  0  0  0  0  0  0
    4.2724   -0.0054   27.8657 C   0  0  0  0  0  0  0  0  0  0  0  0
    4.2763    1.4376   27.4724 C   0  0  1  0  0  0  0  0  0  0  0  0
    4.6389    2.2333   28.6606 O   0  0  0  0  0  0  0  0  0  0  0  0
    3.7439    3.0794   29.1701 C   0  0  0  0  0  0  0  0  0  0  0  0
    2.6186    3.2319   28.7462 O   0  0  0  0  0  0  0  0  0  0  0  0
    4.3052    3.8158   30.3509 C   0  0  0  0  0  0  0  0  0  0  0  0
    2.0878   -2.5498   29.1836 C   0  0  0  0  0  0  0  0  0  0  0  0
    1.9060   -1.8128   24.5195 O   0  0  0  0  0  0  0  0  0  0  0  0
    2.7065   -0.0190   22.5273 O   0  0  0  0  0  0  0  0  0  0  0  0
    6.6344    1.5879   26.9402 O   0  0  0  0  0  0  0  0  0  0  0  0
    5.1847    3.2677   25.9829 C   0  0  0  0  0  0  0  0  0  0  0  0
  1  2  1  0
  3  2  1  0
  4  3  1  0
  5  4  1  0
  6  5  1  0
  7  6  1  0
  8  7  1  0
  9  8  1  0
 10  9  1  0
 11 10  2  0
 12  1  1  0
 12 13  1  1
 14 13  1  0
 15 14  2  0
 16 14  1  0
  9 17  1  1
 18  6  2  0
  4 19  1  1
  1 20  1  0
  1 21  1  6
 11 12  1  0
M  END
>  <_TriposChargeType>  (82) 
NO_CHARGES

$$$$
AGAJIB
     RDKit          3D

 38 38  0  0  0  0  0  0  0  0999 V2000
    7.4145    6.9837   -6.9786 O   0  0  0  0  0  0  0  0  0  0  0  0
   -0.3823    2.3574    4.0334 C   0  0  0  0  0  0  0  0  0  0  0  0
    7.1352    4.8064   -7.4950 O   0  0  0  0  0  0  0  0  0  0  0  0
    0.6480    2.1949    2.9673 C   0  0  0  0  0  0  0  0  0  0  0  0
    0.7473    3.4147    2.0696 C   0  0  0  0  0  0  0  0  0  0  0  0
   -1.9670    2.0505    6.1650 O   0  0  0  0  0  0  0  0  0  0  0  0
    1.7717    3.2775    0.9649 C   0  0  0  0  0  0  0  0  0  0  0  0
   -0.3910    1.1518    4.8417 O   0  0  0  0  0  0  0  0  0  0  0  0
    1.8560    4.4704    0.0290 C   0  0  0  0  0  0  0  0  0  0  0  0
    2.8683    4.3063   -1.0866 C   0  0  0  0  0  0  0  0  0  0  0  0
    2.9399    5.4740   -2.0597 C   0  0  0  0  0  0  0  0  0  0  0  0
    3.9356    5.2890   -3.1833 C   0  0  0  0  0  0  0  0  0  0  0  0
    4.0721    6.4847   -4.1116 C   0  0  0  0  0  0  0  0  0  0  0  0
    5.0080    6.2618   -5.2809 C   0  0  0  0  0  0  0  0  0  0  0  0
    5.1838    7.4965   -6.1571 C   0  0  0  0  0  0  0  0  0  0  0  0
    6.0409    7.2933   -7.3720 C   0  0  0  0  0  0  0  0  0  0  0  0
    7.8235    5.7161   -7.1151 C   0  0  0  0  0  0  0  0  0  0  0  0
    9.2699    5.5712   -6.7362 C   0  0  0  0  0  0  0  0  0  0  0  0
   -1.2013    1.1600    5.9138 C   0  0  0  0  0  0  0  0  0  0  0  0
   -0.9966   -0.0813    6.7362 C   0  0  0  0  0  0  0  0  0  0  0  0
    0.4498   -0.2262    7.1151 C   0  0  0  0  0  0  0  0  0  0  0  0
    0.8588   -1.4938    6.9786 O   0  0  0  0  0  0  0  0  0  0  0  0
    2.2324   -1.8034    7.3720 C   0  0  0  0  0  0  0  0  0  0  0  0
    3.0895   -2.0066    6.1571 C   0  0  0  0  0  0  0  0  0  0  0  0
    3.2653   -0.7719    5.2809 C   0  0  0  0  0  0  0  0  0  0  0  0
    4.2012   -0.9948    4.1116 C   0  0  0  0  0  0  0  0  0  0  0  0
    4.3377    0.2009    3.1833 C   0  0  0  0  0  0  0  0  0  0  0  0
    5.3334    0.0159    2.0597 C   0  0  0  0  0  0  0  0  0  0  0  0
    5.4050    1.1836    1.0866 C   0  0  0  0  0  0  0  0  0  0  0  0
    6.4173    1.0195   -0.0290 C   0  0  0  0  0  0  0  0  0  0  0  0
    6.5016    2.2124   -0.9649 C   0  0  0  0  0  0  0  0  0  0  0  0
    7.5260    2.0752   -2.0696 C   0  0  0  0  0  0  0  0  0  0  0  0
    7.6253    3.2950   -2.9673 C   0  0  0  0  0  0  0  0  0  0  0  0
    8.6556    3.1325   -4.0334 C   0  0  0  0  0  0  0  0  0  0  0  0
    8.6643    4.3381   -4.8417 O   0  0  0  0  0  0  0  0  0  0  0  0
    9.4746    4.3299   -5.9138 C   0  0  0  0  0  0  0  0  0  0  0  0
   10.2403    3.4394   -6.1650 O   0  0  0  0  0  0  0  0  0  0  0  0
    1.1381    0.6835    7.4950 O   0  0  0  0  0  0  0  0  0  0  0  0
  1 16  1  0
  2  4  1  0
  3 17  2  0
  4  5  1  0
  5  7  1  0
  6 19  2  0
  7  9  1  0
  8  2  1  0
  9 10  1  0
 10 11  1  0
 11 12  1  0
 12 13  1  0
 13 14  1  0
 14 15  1  0
 15 16  1  0
 17  1  1  0
 18 17  1  0
 19  8  1  0
 20 19  1  0
 21 20  1  0
 22 21  1  0
 23 22  1  0
 24 23  1  0
 25 24  1  0
 26 25  1  0
 27 26  1  0
 28 27  1  0
 29 28  1  0
 30 29  1  0
 31 30  1  0
 32 31  1  0
 33 32  1  0
 34 33  1  0
 35 34  1  0
 36 18  1  0
 37 36  2  0
 38 21  2  0
 35 36  1  0
M  END
>  <_TriposChargeType>  (83) 
NO_CHARGES

$$$$
AJILUA
     RDKit          3D

 20 21  0  0  0  0  0  0  0  0999 V2000
    8.1651    1.6907    9.0775 O   0  0  0  0  0  0  0  0  0  0  0  0
   11.0225    1.8039    5.4748 O   0  0  0  0  0  0  0  0  0  0  0  0
    9.6743    0.4066    3.1090 O   0  0  0  0  0  0  0  0  0  0  0  0
    7.5488    0.7815    7.0292 N   0  0  0  0  0  0  0  0  0  0  0  0
    8.6942    2.8574    6.7960 N   0  0  0  0  0  0  0  0  0  0  0  0
    7.8859    1.7025    4.9673 N   0  0  0  0  0  0  0  0  0  0  0  0
    7.6334    0.8076    8.3621 C   0  0  0  0  0  0  0  0  0  0  0  0
    8.0703    1.7805    6.2839 C   0  0  0  0  0  0  0  0  0  0  0  0
    9.6429    3.7051    6.0841 C   0  0  0  0  0  0  0  0  0  0  0  0
   11.0271    3.0837    6.0997 C   0  0  0  0  0  0  0  0  0  0  0  0
   11.3668    1.8480    4.1084 C   0  0  0  0  0  0  0  0  0  0  0  0
   11.0509    0.5179    3.4591 C   0  0  0  0  0  0  0  0  0  0  0  0
    8.8467   -0.3201    4.0156 C   0  0  0  0  0  0  0  0  0  0  0  0
    7.5936    0.4636    4.2745 C   0  0  0  0  0  0  0  0  0  0  0  0
    7.0004   -0.3675    9.0548 C   0  0  0  0  0  0  0  0  0  0  0  0
    6.5802   -1.4871    8.3634 C   0  0  0  0  0  0  0  0  0  0  0  0
    6.0074   -2.5550    9.0414 C   0  0  0  0  0  0  0  0  0  0  0  0
    5.8379   -2.5039   10.4016 C   0  0  0  0  0  0  0  0  0  0  0  0
    6.2383   -1.3942   11.0917 C   0  0  0  0  0  0  0  0  0  0  0  0
    6.8243   -0.3268   10.4299 C   0  0  0  0  0  0  0  0  0  0  0  0
  1  7  2  0
  2 10  1  0
  3 12  1  0
  4  7  1  0
  7 15  1  0
  8  4  2  0
  9  5  1  0
 10  9  1  0
 11  2  1  0
 12 11  1  0
 13  3  1  0
 14  6  1  0
 15 16  2  0
 17 16  1  0
 18 17  2  0
 19 18  1  0
 20 15  1  0
  5  8  1  0
  6  8  1  0
 13 14  1  0
 19 20  2  0
M  END
>  <_TriposChargeType>  (84) 
NO_CHARGES

$$$$
BAMGOL10
     RDKit          3D

 24 26  0  0  0  0  0  0  0  0999 V2000
    7.5739   11.1500    2.4582 O   0  0  0  0  0  0  0  0  0  0  0  0
    6.5319   10.5064    2.2880 C   0  0  0  0  0  0  0  0  0  0  0  0
    5.8685    9.8399    3.4751 C   0  0  0  0  0  0  0  0  0  0  0  0
    6.1784    8.3344    3.6076 C   0  0  2  0  0  0  0  0  0  0  0  0
    7.6329    7.9850    3.4908 C   0  0  0  0  0  0  0  0  0  0  0  0
    5.4899    7.6356    2.5021 O   0  0  0  0  0  0  0  0  0  0  0  0
    6.0205   10.3731    1.0546 N   0  0  0  0  0  0  0  0  0  0  0  0
    4.7684    9.7433    0.6555 C   0  0  1  0  0  0  0  0  0  0  0  0
    3.9666   10.7018   -0.2525 C   0  0  0  0  0  0  0  0  0  0  0  0
    2.5740   10.1778   -0.5457 C   0  0  0  0  0  0  0  0  0  0  0  0
    2.3077    9.4514   -1.6897 C   0  0  0  0  0  0  0  0  0  0  0  0
    1.5591   10.4030    0.3442 C   0  0  0  0  0  0  0  0  0  0  0  0
    1.0294    8.9710   -1.9508 C   0  0  0  0  0  0  0  0  0  0  0  0
    0.2663    9.9387    0.1113 C   0  0  0  0  0  0  0  0  0  0  0  0
    0.0107    9.2354   -1.0632 C   0  0  0  0  0  0  0  0  0  0  0  0
    5.0337    8.4608   -0.1466 C   0  0  0  0  0  0  0  0  0  0  0  0
    5.8395    8.4930   -1.0774 O   0  0  0  0  0  0  0  0  0  0  0  0
    4.2949    7.3644    0.1168 N   0  0  0  0  0  0  0  0  0  0  0  0
    3.5066    7.1162    1.3196 C   0  0  1  0  0  0  0  0  0  0  0  0
    3.2306    5.5968    1.2216 C   0  0  0  0  0  0  0  0  0  0  0  0
    3.1686    5.3509   -0.2760 C   0  0  0  0  0  0  0  0  0  0  0  0
    4.2968    6.2151   -0.7959 C   0  0  0  0  0  0  0  0  0  0  0  0
    4.1728    7.4655    2.6165 C   0  0  0  0  0  0  0  0  0  0  0  0
    3.5482    7.5850    3.6414 O   0  0  0  0  0  0  0  0  0  0  0  0
  1  2  2  0
  2  3  1  0
  3  4  1  0
  4  5  1  6
  6  4  1  0
  7  2  1  0
  8  7  1  0
  8  9  1  6
 10  9  1  0
 11 10  2  0
 12 10  1  0
 13 11  1  0
 14 12  2  0
 15 13  2  0
 16  8  1  0
 17 16  2  0
 18 16  1  0
 19 18  1  0
 19 20  1  1
 21 20  1  0
 22 18  1  0
 23  6  1  0
 24 23  2  0
 14 15  1  0
 19 23  1  0
 21 22  1  0
M  END
>  <_TriposChargeType>  (85) 
NO_CHARGES

$$$$
BANROX
     RDKit          3D

 24 27  0  0  0  0  0  0  0  0999 V2000
    5.5046    4.3709    7.4547 S   0  0  0  0  0  0  0  0  0  0  0  0
    4.6268    3.7526    9.9246 N   0  0  0  0  0  0  0  0  0  0  0  0
    3.6877    3.7400   10.8806 C   0  0  0  0  0  0  0  0  0  0  0  0
    2.5045    4.3495   10.8887 N   0  0  0  0  0  0  0  0  0  0  0  0
    2.3070    5.1174    9.8206 C   0  0  0  0  0  0  0  0  0  0  0  0
    3.2344    5.2506    8.7746 C   0  0  0  0  0  0  0  0  0  0  0  0
    4.4061    4.4811    8.8320 C   0  0  0  0  0  0  0  0  0  0  0  0
    2.6813    6.1596    7.8975 N   0  0  0  0  0  0  0  0  0  0  0  0
    1.4926    6.5269    8.4566 C   0  0  0  0  0  0  0  0  0  0  0  0
    1.2056    5.9184    9.5936 N   0  0  0  0  0  0  0  0  0  0  0  0
    6.1594    6.9620    4.6756 C   0  0  0  0  0  0  0  0  0  0  0  0
    5.3312    7.3335    3.8502 O   0  0  0  0  0  0  0  0  0  0  0  0
    6.1909    7.5462    5.9523 N   0  0  0  0  0  0  0  0  0  0  0  0
    7.0845    7.1977    6.9500 C   0  0  0  0  0  0  0  0  0  0  0  0
    7.0884    7.7570    8.0345 O   0  0  0  0  0  0  0  0  0  0  0  0
    7.9516    6.1709    6.6609 N   0  0  0  0  0  0  0  0  0  0  0  0
    7.9682    5.5713    5.4254 C   0  0  0  0  0  0  0  0  0  0  0  0
    7.1379    5.9471    4.4428 C   0  0  0  0  0  0  0  0  0  0  0  0
    7.0355    3.7249    8.1796 C   0  0  0  0  0  0  0  0  0  0  0  0
    7.9202    4.8139    8.7628 C   0  0  0  0  0  0  0  0  0  0  0  0
    8.7636    5.6225    7.7735 C   0  0  0  0  0  0  0  0  0  0  0  0
    3.3290    6.8456    6.7729 C   0  0  0  0  0  0  0  0  0  0  0  0
    4.1554    8.0082    7.3014 C   0  0  0  0  0  0  0  0  0  0  0  0
    5.1732    8.5552    6.3068 C   0  0  0  0  0  0  0  0  0  0  0  0
  1  7  1  0
  2  3  2  0
  3  4  1  0
  4  5  2  0
  5  6  1  0
  6  7  2  0
  7  2  1  0
  8  6  1  0
  9  8  1  0
 10  5  1  0
 11 12  2  0
 13 11  1  0
 14 13  1  0
 15 14  2  0
 16 14  1  0
 17 16  1  0
 18 11  1  0
 19  1  1  0
 20 19  1  0
 21 16  1  0
 22  8  1  0
 23 22  1  0
 24 13  1  0
  9 10  2  0
 17 18  2  0
 20 21  1  0
 23 24  1  0
M  END
>  <_TriposChargeType>  (86) 
NO_CHARGES

$$$$
BARYOI
     RDKit          3D

 35 38  0  0  0  0  0  0  0  0999 V2000
   -0.7675   12.4284   -6.4291 Br  0  0  0  0  0  0  0  0  0  0  0  0
    1.1679   10.5948    3.0183 S   0  0  0  0  0  0  0  0  0  0  0  0
   -4.3467   11.8285   -1.1685 S   0  0  0  0  0  0  0  0  0  0  0  0
    4.1259    9.0722    1.3625 O   0  0  0  0  0  0  0  0  0  0  0  0
    2.4676    9.1225   -0.1386 O   0  0  0  0  0  0  0  0  0  0  0  0
    2.8294   13.8246    0.3141 O   0  0  0  0  0  0  0  0  0  0  0  0
   -0.6274   11.0508   -0.7921 O   0  0  0  0  0  0  0  0  0  0  0  0
   -4.7167   13.1558   -0.7482 O   0  0  0  0  0  0  0  0  0  0  0  0
   -5.3347   10.8275   -1.4156 O   0  0  0  0  0  0  0  0  0  0  0  0
    0.5594   13.0564    4.0320 N   0  0  0  0  0  0  0  0  0  0  0  0
    2.0598   11.7034    0.1871 N   0  0  0  0  0  0  0  0  0  0  0  0
   -0.4402   13.2236   -0.2402 N   0  0  0  0  0  0  0  0  0  0  0  0
   -3.4191   11.2192   -0.0069 N   0  0  0  0  0  0  0  0  0  0  0  0
    0.1652   12.0004    3.2538 C   0  0  0  0  0  0  0  0  0  0  0  0
   -1.1617   12.1664    2.8589 C   0  0  0  0  0  0  0  0  0  0  0  0
   -1.5935   13.4013    3.4755 C   0  0  0  0  0  0  0  0  0  0  0  0
   -2.8001   14.0480    3.5124 C   0  0  0  0  0  0  0  0  0  0  0  0
   -2.9183   15.2221    4.2468 C   0  0  0  0  0  0  0  0  0  0  0  0
   -1.8277   15.7284    4.9119 C   0  0  0  0  0  0  0  0  0  0  0  0
   -0.5646   15.1192    4.8980 C   0  0  0  0  0  0  0  0  0  0  0  0
   -0.4946   13.9170    4.1821 C   0  0  0  0  0  0  0  0  0  0  0  0
    2.7635   11.3221    2.5033 C   0  0  0  0  0  0  0  0  0  0  0  0
    3.0594   11.1315    1.0415 C   0  0  1  0  0  0  0  0  0  0  0  0
    3.1974    9.6733    0.6628 C   0  0  0  0  0  0  0  0  0  0  0  0
    2.0159   13.0248   -0.0924 C   0  0  0  0  0  0  0  0  0  0  0  0
    0.8009   13.4352   -0.9399 C   0  0  0  0  0  0  0  0  0  0  0  0
   -1.0717   12.0542   -0.2101 C   0  0  0  0  0  0  0  0  0  0  0  0
   -2.3327   11.9910    0.6281 C   0  0  2  0  0  0  0  0  0  0  0  0
   -1.9751   11.3093    1.9698 C   0  0  0  0  0  0  0  0  0  0  0  0
   -3.3668   12.0132   -2.6395 C   0  0  0  0  0  0  0  0  0  0  0  0
   -3.2936   10.9245   -3.5055 C   0  0  0  0  0  0  0  0  0  0  0  0
   -2.5094   11.0660   -4.6579 C   0  0  0  0  0  0  0  0  0  0  0  0
   -1.8528   12.2612   -4.8749 C   0  0  0  0  0  0  0  0  0  0  0  0
   -1.9239   13.3300   -4.0020 C   0  0  0  0  0  0  0  0  0  0  0  0
   -2.7154   13.1745   -2.8797 C   0  0  0  0  0  0  0  0  0  0  0  0
  1 33  1  0
  2 14  1  0
  3  8  2  0
  4 24  1  0
  5 24  2  0
  6 25  2  0
  7 27  2  0
  9  3  2  0
 10 14  1  0
 11 23  1  0
 12 26  1  0
 13  3  1  0
 14 15  2  0
 15 16  1  0
 16 17  2  0
 17 18  1  0
 18 19  2  0
 19 20  1  0
 20 21  2  0
 21 10  1  0
 22  2  1  0
 23 22  1  0
 23 24  1  1
 25 11  1  0
 26 25  1  0
 27 12  1  0
 28 13  1  6
 29 15  1  0
 30  3  1  0
 31 30  2  0
 32 31  1  0
 33 32  2  0
 34 33  1  0
 35 30  1  0
 16 21  1  0
 27 28  1  0
 28 29  1  0
 34 35  2  0
M  END
>  <_TriposChargeType>  (87) 
NO_CHARGES

$$$$
BAYSOJ
     RDKit          3D

 15 15  0  0  0  0  0  0  0  0999 V2000
    2.9869    1.5401    1.9961 N   0  0  0  0  0  0  0  0  0  0  0  0
    2.4684    1.9727    3.1567 C   0  0  0  0  0  0  0  0  0  0  0  0
    2.1174    1.0446    4.0618 N   0  0  0  0  0  0  0  0  0  0  0  0
    1.5321    1.3861    5.3599 C   0  0  0  0  0  0  0  0  0  0  0  0
    1.0016    0.1339    5.9948 C   0  0  0  0  0  0  0  0  0  0  0  0
    2.0855   -0.7459    6.2003 O   0  0  0  0  0  0  0  0  0  0  0  0
    1.6886   -2.0825    6.5011 C   0  0  0  0  0  0  0  0  0  0  0  0
    2.8981   -2.9543    6.5893 C   0  0  0  0  0  0  0  0  0  0  0  0
    3.5971   -3.0306    5.3486 O   0  0  0  0  0  0  0  0  0  0  0  0
    4.6710   -2.1026    5.2459 C   0  0  0  0  0  0  0  0  0  0  0  0
    4.9797   -1.8294    3.8103 C   0  0  0  0  0  0  0  0  0  0  0  0
    3.9325   -1.0178    3.2781 O   0  0  0  0  0  0  0  0  0  0  0  0
    4.0990   -0.7044    1.8999 C   0  0  0  0  0  0  0  0  0  0  0  0
    2.9504    0.1768    1.4688 C   0  0  0  0  0  0  0  0  0  0  0  0
    2.2390    3.6333    3.4083 S   0  0  0  0  0  0  0  0  0  0  0  0
  1  2  1  0
  2  3  1  0
  3  4  1  0
  4  5  1  0
  5  6  1  0
  6  7  1  0
  7  8  1  0
  8  9  1  0
  9 10  1  0
 10 11  1  0
 11 12  1  0
 12 13  1  0
 13 14  1  0
 14  1  1  0
 15  2  2  0
M  END
>  <_TriposChargeType>  (88) 
NO_CHARGES

$$$$
BIHYAS10
     RDKit          3D

 42 43  0  0  0  0  0  0  0  0999 V2000
    1.4748    0.1385    8.6198 O   0  0  0  0  0  0  0  0  0  0  0  0
    2.5486    0.3939    7.6637 C   0  0  1  0  0  0  0  0  0  0  0  0
    3.7616   -0.4669    8.0416 C   0  0  0  0  0  0  0  0  0  0  0  0
    3.6240   -1.6541    8.3146 O   0  0  0  0  0  0  0  0  0  0  0  0
    1.9987   -0.0397    6.3054 C   0  0  0  0  0  0  0  0  0  0  0  0
    2.9919    0.2329    5.2152 C   0  0  0  0  0  0  0  0  0  0  0  0
    3.6809   -0.7042    4.6047 C   0  0  0  0  0  0  0  0  0  0  0  0
    4.9667    0.1417    8.0352 N   0  0  0  0  0  0  0  0  0  0  0  0
    6.1785   -0.6172    8.3356 C   0  0  2  0  0  0  0  0  0  0  0  0
    6.4071   -0.8340    9.8393 C   0  0  0  0  0  0  0  0  0  0  0  0
    7.3271   -1.5468   10.2350 O   0  0  0  0  0  0  0  0  0  0  0  0
    7.2784    0.2834    7.7541 C   0  0  2  0  0  0  0  0  0  0  0  0
    6.7466    1.6842    8.0287 C   0  0  0  0  0  0  0  0  0  0  0  0
    7.4674    0.0343    6.2602 C   0  0  0  0  0  0  0  0  0  0  0  0
    5.2462    1.5629    7.7428 C   0  0  0  0  0  0  0  0  0  0  0  0
    5.6102   -0.1406   10.6533 N   0  0  0  0  0  0  0  0  0  0  0  0
    5.7201   -0.2458   12.1004 C   0  0  2  0  0  0  0  0  0  0  0  0
    5.0443   -1.5210   12.5736 C   0  0  0  0  0  0  0  0  0  0  0  0
    3.9833   -1.8677   12.0277 O   0  0  0  0  0  0  0  0  0  0  0  0
    4.9724    0.9972   12.7045 C   0  0  2  0  0  0  0  0  0  0  0  0
    5.5988    2.2992   12.1666 C   0  0  0  0  0  0  0  0  0  0  0  0
    4.9336    0.9961   14.2356 C   0  0  0  0  0  0  0  0  0  0  0  0
    7.0870    2.3690   12.3185 C   0  0  0  0  0  0  0  0  0  0  0  0
    5.5839   -2.1972   13.6057 N   0  0  0  0  0  0  0  0  0  0  0  0
    6.8847   -1.8291   14.2065 C   0  0  0  0  0  0  0  0  0  0  0  0
    4.8032   -3.3061   14.1807 C   0  0  2  0  0  0  0  0  0  0  0  0
    4.1313   -2.7651   15.4518 C   0  0  0  0  0  0  0  0  0  0  0  0
    4.8183   -2.6331   16.4612 O   0  0  0  0  0  0  0  0  0  0  0  0
    5.6270   -4.5598   14.4989 C   0  0  0  0  0  0  0  0  0  0  0  0
    4.6776   -5.6869   14.9010 C   0  0  0  0  0  0  0  0  0  0  0  0
    6.4779   -4.9752   13.3053 C   0  0  0  0  0  0  0  0  0  0  0  0
    2.8239   -2.4001   15.4421 N   0  0  0  0  0  0  0  0  0  0  0  0
    2.2858   -1.9826   16.7422 C   0  0  0  0  0  0  0  0  0  0  0  0
    1.8723   -2.5815   14.3228 C   0  0  2  0  0  0  0  0  0  0  0  0
    1.1689   -1.2548   13.9659 C   0  0  0  0  0  0  0  0  0  0  0  0
    0.3152   -0.7707   14.6911 O   0  0  0  0  0  0  0  0  0  0  0  0
    0.8481   -3.6528   14.6361 C   0  0  0  0  0  0  0  0  0  0  0  0
    1.5013   -0.7406   12.7675 N   0  0  0  0  0  0  0  0  0  0  0  0
    0.8735    0.4755   12.2571 C   0  0  0  0  0  0  0  0  0  0  0  0
    0.5448    0.3510   10.7679 C   0  0  0  0  0  0  0  0  0  0  0  0
    1.7496    0.5195    9.8780 C   0  0  0  0  0  0  0  0  0  0  0  0
    2.8188    0.9650   10.2285 O   0  0  0  0  0  0  0  0  0  0  0  0
  1  2  1  0
  2  3  1  0
  3  4  2  0
  2  5  1  6
  6  5  1  0
  7  6  2  0
  8  3  1  0
  9  8  1  0
  9 10  1  1
 11 10  2  0
 12  9  1  0
 13 12  1  0
 12 14  1  6
 15  8  1  0
 16 10  1  0
 17 16  1  6
 18 17  1  0
 19 18  2  0
 20 17  1  0
 20 21  1  0
 20 22  1  1
 23 21  1  0
 24 18  1  0
 25 24  1  0
 26 24  1  0
 27 26  1  0
 28 27  2  0
 26 29  1  1
 30 29  1  0
 31 29  1  0
 32 27  1  0
 33 32  1  0
 34 32  1  0
 35 34  1  0
 36 35  2  0
 34 37  1  1
 38 35  1  0
 39 38  1  0
 40 39  1  0
 41  1  1  0
 42 41  2  0
 13 15  1  0
 40 41  1  0
M  END
>  <_TriposChargeType>  (89) 
NO_CHARGES

$$$$
CAMVES01
     RDKit          3D

 34 36  0  0  0  0  0  0  0  0999 V2000
    4.5460    9.6564    9.3891 O   0  0  0  0  0  0  0  0  0  0  0  0
    6.7332    7.6037   10.1015 O   0  0  0  0  0  0  0  0  0  0  0  0
    4.4976    5.1756   13.5693 O   0  0  0  0  0  0  0  0  0  0  0  0
    2.8256    3.2673    9.7802 O   0  0  0  0  0  0  0  0  0  0  0  0
    4.3014    5.7878    8.1180 O   0  0  0  0  0  0  0  0  0  0  0  0
    5.0138    7.9235    5.3387 O   0  0  0  0  0  0  0  0  0  0  0  0
    6.3572    9.3895   11.4373 N   0  0  0  0  0  0  0  0  0  0  0  0
    5.6395    5.8790   11.7457 N   0  0  0  0  0  0  0  0  0  0  0  0
    5.0091    3.5628   10.3565 N   0  0  0  0  0  0  0  0  0  0  0  0
    5.5119    3.9554    7.5882 N   0  0  0  0  0  0  0  0  0  0  0  0
    6.1925    7.5494    7.2342 N   0  0  0  0  0  0  0  0  0  0  0  0
    6.1997   10.1730    7.9364 N   0  0  0  0  0  0  0  0  0  0  0  0
    5.6977   10.0323    9.1872 C   0  0  0  0  0  0  0  0  0  0  0  0
    6.6385   10.3400   10.3520 C   0  0  1  0  0  0  0  0  0  0  0  0
    6.3469   11.7152   10.9891 C   0  0  0  0  0  0  0  0  0  0  0  0
    6.5019   11.4532   12.4936 C   0  0  0  0  0  0  0  0  0  0  0  0
    5.8963   10.0642   12.6567 C   0  0  0  0  0  0  0  0  0  0  0  0
    6.4014    8.0757   11.1978 C   0  0  0  0  0  0  0  0  0  0  0  0
    6.0395    7.1389   12.3503 C   0  0  2  0  0  0  0  0  0  0  0  0
    7.2246    6.9275   13.3024 C   0  0  0  0  0  0  0  0  0  0  0  0
    4.9301    4.9740   12.4232 C   0  0  0  0  0  0  0  0  0  0  0  0
    4.7178    3.6115   11.7770 C   0  0  2  0  0  0  0  0  0  0  0  0
    5.5495    2.5851   12.5490 C   0  0  0  0  0  0  0  0  0  0  0  0
    4.0144    3.3379    9.4666 C   0  0  0  0  0  0  0  0  0  0  0  0
    4.4606    3.0568    8.0312 C   0  0  2  0  0  0  0  0  0  0  0  0
    4.9398    1.6046    7.9347 C   0  0  0  0  0  0  0  0  0  0  0  0
    5.3030    5.2938    7.6167 C   0  0  0  0  0  0  0  0  0  0  0  0
    6.4036    6.1441    6.9634 C   0  0  2  0  0  0  0  0  0  0  0  0
    7.8128    5.7568    7.4035 C   0  0  0  0  0  0  0  0  0  0  0  0
    5.5089    8.3337    6.3999 C   0  0  0  0  0  0  0  0  0  0  0  0
    5.4002    9.8199    6.7666 C   0  0  2  0  0  0  0  0  0  0  0  0
    6.0162   10.6899    5.6611 C   0  0  0  0  0  0  0  0  0  0  0  0
    7.5061   10.6928    6.0351 C   0  0  0  0  0  0  0  0  0  0  0  0
    7.5022   10.7622    7.5711 C   0  0  0  0  0  0  0  0  0  0  0  0
  1 13  2  0
  2 18  2  0
  3 21  2  0
  4 24  2  0
  5 27  2  0
  6 30  2  0
  7 14  1  0
  8 19  1  0
  9 22  1  0
 10 25  1  0
 11 28  1  0
 12 13  1  0
 14 13  1  0
 14 15  1  1
 15 16  1  0
 16 17  1  0
 17  7  1  0
 18  7  1  0
 19 18  1  0
 19 20  1  1
 21  8  1  0
 22 21  1  0
 22 23  1  1
 24  9  1  0
 25 24  1  0
 25 26  1  1
 27 10  1  0
 28 27  1  0
 28 29  1  1
 30 11  1  0
 31 12  1  0
 31 32  1  6
 33 32  1  0
 34 12  1  0
 30 31  1  0
 33 34  1  0
M  END
>  <_TriposChargeType>  (90) 
NO_CHARGES

$$$$
CAPINC
     RDKit          3D

 12 12  0  0  0  0  0  0  0  0999 V2000
    1.2334    1.6167    3.8714 C   0  0  0  0  0  0  0  0  0  0  0  0
   -0.3887    3.1554    2.9222 C   0  0  0  0  0  0  0  0  0  0  0  0
    2.2260    0.5044    3.6984 C   0  0  0  0  0  0  0  0  0  0  0  0
    3.6759    0.9684    3.9615 C   0  0  0  0  0  0  0  0  0  0  0  0
    4.4358    1.5212    2.7776 C   0  0  0  0  0  0  0  0  0  0  0  0
    3.7754    2.6295    1.9884 C   0  0  0  0  0  0  0  0  0  0  0  0
    3.4957    3.8951    2.7930 C   0  0  0  0  0  0  0  0  0  0  0  0
    2.7559    4.9604    2.0109 C   0  0  0  0  0  0  0  0  0  0  0  0
    1.3127    4.6134    1.6626 C   0  0  0  0  0  0  0  0  0  0  0  0
    0.3564    4.4762    2.8819 C   0  0  0  0  0  0  0  0  0  0  0  0
    0.5111    2.0067    2.8606 N   0  0  0  0  0  0  0  0  0  0  0  0
    1.1029    2.2085    4.9936 O   0  0  0  0  0  0  0  0  0  0  0  0
  1  3  1  0
  2 10  1  0
  3  4  1  0
  4  5  1  0
  5  6  1  0
  6  7  1  0
  7  8  1  0
  8  9  1  0
  9 10  1  0
 11  1  1  0
 12  1  2  0
  2 11  1  0
M  END
>  <_TriposChargeType>  (91) 
USER_CHARGES

$$$$
CAZVEF
     RDKit          3D

 20 20  0  0  0  0  0  0  0  0999 V2000
    2.3774    1.6521    6.3438 C   0  0  0  0  0  0  0  0  0  0  0  0
    2.6956    3.7064    7.5841 N   0  0  0  0  0  0  0  0  0  0  0  0
    0.3629    3.8591    4.6877 C   0  0  0  0  0  0  0  0  0  0  0  0
    1.2055    2.8351    4.4980 N   0  0  0  0  0  0  0  0  0  0  0  0
    1.2157    2.1840    8.3487 O   0  0  0  0  0  0  0  0  0  0  0  0
    1.2330    1.6431    5.3236 C   0  0  0  0  0  0  0  0  0  0  0  0
    2.0543    2.5410    7.5176 C   0  0  0  0  0  0  0  0  0  0  0  0
   -0.4813    3.8770    5.5790 O   0  0  0  0  0  0  0  0  0  0  0  0
    2.4393    4.6509    8.6588 C   0  0  0  0  0  0  0  0  0  0  0  0
    0.5360    5.0052    3.7181 C   0  0  0  0  0  0  0  0  0  0  0  0
   -0.6677    8.8299    5.8314 C   0  0  0  0  0  0  0  0  0  0  0  0
   -0.9859    6.7756    4.5912 N   0  0  0  0  0  0  0  0  0  0  0  0
    1.3468    6.6229    7.4875 C   0  0  0  0  0  0  0  0  0  0  0  0
    0.5042    7.6469    7.6772 N   0  0  0  0  0  0  0  0  0  0  0  0
    0.4940    8.2980    3.8265 O   0  0  0  0  0  0  0  0  0  0  0  0
    0.4767    8.8389    6.8516 C   0  0  0  0  0  0  0  0  0  0  0  0
   -0.3446    7.9410    4.6576 C   0  0  0  0  0  0  0  0  0  0  0  0
    2.1910    6.6050    6.5962 O   0  0  0  0  0  0  0  0  0  0  0  0
   -0.7296    5.8311    3.5164 C   0  0  0  0  0  0  0  0  0  0  0  0
    1.1737    5.4768    8.4571 C   0  0  0  0  0  0  0  0  0  0  0  0
  1  6  1  0
  2  7  1  0
  3  4  1  0
  4  6  1  0
  5  7  2  0
  7  1  1  0
  8  3  2  0
  9  2  1  0
 10  3  1  0
 11 16  1  0
 12 17  1  0
 13 14  1  0
 14 16  1  0
 15 17  2  0
 17 11  1  0
 18 13  2  0
 19 10  1  0
 20  9  1  0
 12 19  1  0
 13 20  1  0
M  END
>  <_TriposChargeType>  (92) 
NO_CHARGES

$$$$
CHMADP
     RDKit          3D

 32 32  0  0  0  0  0  0  0  0999 V2000
   -2.2865  -11.7794    9.5243 C   0  0  0  0  0  0  0  0  0  0  0  0
   -2.6571  -14.6063   10.9298 C   0  0  0  0  0  0  0  0  0  0  0  0
   -3.5306  -12.6551    9.5308 C   0  0  0  0  0  0  0  0  0  0  0  0
   -3.7141  -13.5309   10.7597 C   0  0  0  0  0  0  0  0  0  0  0  0
   -1.6113  -16.1233    9.3065 C   0  0  0  0  0  0  0  0  0  0  0  0
   -1.8547  -17.0864    8.1676 C   0  0  0  0  0  0  0  0  0  0  0  0
   -0.7701  -17.0365    7.0926 C   0  0  0  0  0  0  0  0  0  0  0  0
   -0.8703  -18.1219    6.0501 C   0  0  0  0  0  0  0  0  0  0  0  0
    0.1695  -17.9248    4.9502 C   0  0  0  0  0  0  0  0  0  0  0  0
   -0.1919  -16.8270    3.9922 C   0  0  0  0  0  0  0  0  0  0  0  0
   -1.1145   -9.8382    8.3767 C   0  0  0  0  0  0  0  0  0  0  0  0
   -2.2837  -10.7913    8.3865 C   0  0  0  0  0  0  0  0  0  0  0  0
   -2.6974  -15.5445    9.8267 N   0  0  0  0  0  0  0  0  0  0  0  0
   -1.2556   -8.8302    7.3353 N   0  0  0  0  0  0  0  0  0  0  0  0
   -0.4919  -15.9038    9.7465 O   0  0  0  0  0  0  0  0  0  0  0  0
   -1.3459  -16.5924    3.6411 O   0  0  0  0  0  0  0  0  0  0  0  0
    0.8298  -16.1208    3.5013 N   0  0  0  0  0  0  0  0  0  0  0  0
   -0.2339   -8.1240    6.8444 C   0  0  0  0  0  0  0  0  0  0  0  0
    0.6887  -15.1128    2.4599 C   0  0  0  0  0  0  0  0  0  0  0  0
   -0.5953   -7.0262    5.8865 C   0  0  0  0  0  0  0  0  0  0  0  0
    0.9202   -8.3586    7.1955 O   0  0  0  0  0  0  0  0  0  0  0  0
    1.8579  -14.1597    2.4502 C   0  0  0  0  0  0  0  0  0  0  0  0
    0.4445   -6.8291    4.7865 C   0  0  0  0  0  0  0  0  0  0  0  0
    1.8608  -13.1716    1.3123 C   0  0  0  0  0  0  0  0  0  0  0  0
    0.3444   -7.9145    3.7441 C   0  0  0  0  0  0  0  0  0  0  0  0
    3.1048  -12.2959    1.3058 C   0  0  0  0  0  0  0  0  0  0  0  0
    1.4289   -7.8646    2.6691 C   0  0  0  0  0  0  0  0  0  0  0  0
    3.2883  -11.4201    0.0769 C   0  0  0  0  0  0  0  0  0  0  0  0
    1.1856   -8.8277    1.5301 C   0  0  0  0  0  0  0  0  0  0  0  0
    2.2313  -10.3447   -0.0932 C   0  0  0  0  0  0  0  0  0  0  0  0
    2.2717   -9.4065    1.0100 N   0  0  0  0  0  0  0  0  0  0  0  0
    0.0662   -9.0472    1.0902 O   0  0  0  0  0  0  0  0  0  0  0  0
  1  3  1  0
  2  4  1  0
  3  4  1  0
  5  6  1  0
  6  7  1  0
  7  8  1  0
  8  9  1  0
  9 10  1  0
 10 16  2  0
 11 12  1  0
 12  1  1  0
 13  2  1  0
 14 11  1  0
 15  5  2  0
 17 10  1  0
 18 14  1  0
 19 17  1  0
 20 18  1  0
 21 18  2  0
 22 19  1  0
 23 20  1  0
 24 22  1  0
 25 23  1  0
 26 24  1  0
 27 25  1  0
 28 26  1  0
 29 27  1  0
 30 28  1  0
 31 29  1  0
 32 29  2  0
  5 13  1  0
 30 31  1  0
M  END
>  <_TriposChargeType>  (93) 
NO_CHARGES

$$$$
COFKAK
     RDKit          3D

 72 80  0  0  0  0  0  0  0  0999 V2000
    2.6020    8.4573   17.5647 O   0  0  0  0  0  0  0  0  0  0  0  0
    4.3798    8.7958   16.2109 O   0  0  0  0  0  0  0  0  0  0  0  0
    1.4430   -0.6857   15.1484 O   0  0  0  0  0  0  0  0  0  0  0  0
    2.5128    1.3070   15.1376 O   0  0  0  0  0  0  0  0  0  0  0  0
    3.5686    1.4697   11.7126 O   0  0  0  0  0  0  0  0  0  0  0  0
    1.3880    1.6303   12.5685 O   0  0  0  0  0  0  0  0  0  0  0  0
    2.5464    8.2454   14.2787 O   0  0  0  0  0  0  0  0  0  0  0  0
    4.7479    8.0965   13.4904 O   0  0  0  0  0  0  0  0  0  0  0  0
    3.6592   10.5891   17.5496 C   0  0  0  0  0  0  0  0  0  0  0  0
    3.4589    9.1728   17.1197 C   0  0  0  0  0  0  0  0  0  0  0  0
    4.2565    7.4555   15.6930 C   0  0  0  0  0  0  0  0  0  0  0  0
    3.7303    7.4776   14.2657 C   0  0  0  0  0  0  0  0  0  0  0  0
    3.4675    6.0385   13.8293 C   0  0  0  0  0  0  0  0  0  0  0  0
    4.4891    5.2543   13.3092 C   0  0  0  0  0  0  0  0  0  0  0  0
    4.2608    3.9266   12.9697 C   0  0  0  0  0  0  0  0  0  0  0  0
    2.9963    3.3674   13.1388 C   0  0  0  0  0  0  0  0  0  0  0  0
    2.7571    1.8966   12.7971 C   0  0  0  0  0  0  0  0  0  0  0  0
    3.1982    0.9741   13.9217 C   0  0  0  0  0  0  0  0  0  0  0  0
    1.6636    0.3870   15.6410 C   0  0  0  0  0  0  0  0  0  0  0  0
    1.0340    0.8720   16.9013 C   0  0  0  0  0  0  0  0  0  0  0  0
    0.2213   -0.0125   17.6071 C   0  0  0  0  0  0  0  0  0  0  0  0
   -0.3882    0.3950   18.7831 C   0  0  0  0  0  0  0  0  0  0  0  0
    4.4726   11.4784   16.8444 C   0  0  0  0  0  0  0  0  0  0  0  0
    2.2175    5.4695   14.0367 C   0  0  0  0  0  0  0  0  0  0  0  0
    1.9861    4.1469   13.6898 C   0  0  0  0  0  0  0  0  0  0  0  0
    3.0220   11.0024   18.7146 C   0  0  0  0  0  0  0  0  0  0  0  0
    3.1615    2.0198   10.4516 C   0  0  0  0  0  0  0  0  0  0  0  0
    1.7005    1.6920   10.1482 C   0  0  0  0  0  0  0  0  0  0  0  0
    0.8925    2.1995   11.3398 C   0  0  0  0  0  0  0  0  0  0  0  0
    1.2590    2.4243    8.8768 C   0  0  0  0  0  0  0  0  0  0  0  0
    1.5119    0.1810    9.9952 C   0  0  0  0  0  0  0  0  0  0  0  0
    2.0487    8.5312   12.9617 C   0  0  0  0  0  0  0  0  0  0  0  0
    3.0920    9.2871   12.1460 C   0  0  0  0  0  0  0  0  0  0  0  0
    4.3401    8.4175   12.1557 C   0  0  0  0  0  0  0  0  0  0  0  0
    3.3629   10.6515   12.7753 C   0  0  0  0  0  0  0  0  0  0  0  0
    2.6044    9.4508   10.7112 C   0  0  0  0  0  0  0  0  0  0  0  0
    1.6564    4.7063   18.5314 O   0  0  0  0  0  0  0  0  0  0  0  0
   -0.1214    4.3678   19.8852 O   0  0  0  0  0  0  0  0  0  0  0  0
    2.8153   13.8493   20.9476 O   0  0  0  0  0  0  0  0  0  0  0  0
    1.7456   11.8566   20.9585 O   0  0  0  0  0  0  0  0  0  0  0  0
    0.6897   11.6939   24.3835 O   0  0  0  0  0  0  0  0  0  0  0  0
    2.8704   11.5333   23.5276 O   0  0  0  0  0  0  0  0  0  0  0  0
    1.7120    4.9182   21.8174 O   0  0  0  0  0  0  0  0  0  0  0  0
   -0.4895    5.0671   22.6057 O   0  0  0  0  0  0  0  0  0  0  0  0
    0.5992    2.5745   18.5465 C   0  0  0  0  0  0  0  0  0  0  0  0
    0.7995    3.9908   18.9764 C   0  0  0  0  0  0  0  0  0  0  0  0
    0.0019    5.7081   20.4031 C   0  0  0  0  0  0  0  0  0  0  0  0
    0.5281    5.6860   21.8304 C   0  0  0  0  0  0  0  0  0  0  0  0
    0.7909    7.1251   22.2668 C   0  0  0  0  0  0  0  0  0  0  0  0
   -0.2307    7.9093   22.7869 C   0  0  0  0  0  0  0  0  0  0  0  0
   -0.0024    9.2370   23.1264 C   0  0  0  0  0  0  0  0  0  0  0  0
    1.2621    9.7962   22.9573 C   0  0  0  0  0  0  0  0  0  0  0  0
    1.5013   11.2670   23.2989 C   0  0  0  0  0  0  0  0  0  0  0  0
    1.0602   12.1895   22.1744 C   0  0  0  0  0  0  0  0  0  0  0  0
    2.5948   12.7766   20.4551 C   0  0  0  0  0  0  0  0  0  0  0  0
    3.2244   12.2916   19.1948 C   0  0  0  0  0  0  0  0  0  0  0  0
    4.0371   13.1761   18.4890 C   0  0  0  0  0  0  0  0  0  0  0  0
    4.6466   12.7686   17.3130 C   0  0  0  0  0  0  0  0  0  0  0  0
   -0.2142    1.6852   19.2517 C   0  0  0  0  0  0  0  0  0  0  0  0
    2.0409    7.6941   22.0594 C   0  0  0  0  0  0  0  0  0  0  0  0
    2.2723    9.0167   22.4063 C   0  0  0  0  0  0  0  0  0  0  0  0
    1.2364    2.1612   17.3815 C   0  0  0  0  0  0  0  0  0  0  0  0
    1.0969   11.1438   25.6445 C   0  0  0  0  0  0  0  0  0  0  0  0
    2.5579   11.4716   25.9479 C   0  0  0  0  0  0  0  0  0  0  0  0
    3.3659   10.9641   24.7563 C   0  0  0  0  0  0  0  0  0  0  0  0
    2.9994   10.7393   27.2193 C   0  0  0  0  0  0  0  0  0  0  0  0
    2.7464   12.9826   26.1009 C   0  0  0  0  0  0  0  0  0  0  0  0
    2.2097    4.6324   23.1343 C   0  0  0  0  0  0  0  0  0  0  0  0
    1.1664    3.8765   23.9501 C   0  0  0  0  0  0  0  0  0  0  0  0
   -0.0817    4.7461   23.9404 C   0  0  0  0  0  0  0  0  0  0  0  0
    0.8955    2.5121   23.3208 C   0  0  0  0  0  0  0  0  0  0  0  0
    1.6540    3.7128   25.3849 C   0  0  0  0  0  0  0  0  0  0  0  0
  1 10  2  0
  2 10  1  0
  3 19  2  0
  4 18  1  0
  5 17  1  0
  6 17  1  0
  7 12  1  0
  8 12  1  0
  9 10  1  0
 11  2  1  0
 12 11  1  0
 13 12  1  0
 14 13  2  0
 15 14  1  0
 16 15  2  0
 17 16  1  0
 18 17  1  0
 19  4  1  0
 20 19  1  0
 21 20  2  0
 22 21  1  0
 23  9  2  0
 24 13  1  0
 25 16  1  0
 26  9  1  0
 27  5  1  0
 28 27  1  0
 29  6  1  0
 30 28  1  0
 31 28  1  0
 32  7  1  0
 33 32  1  0
 34  8  1  0
 35 33  1  0
 36 33  1  0
 37 46  2  0
 38 46  1  0
 39 55  2  0
 40 54  1  0
 41 53  1  0
 42 53  1  0
 43 48  1  0
 44 48  1  0
 45 46  1  0
 47 38  1  0
 48 47  1  0
 49 48  1  0
 50 49  2  0
 51 50  1  0
 52 51  2  0
 53 52  1  0
 54 53  1  0
 55 40  1  0
 56 26  2  0
 57 56  1  0
 58 23  1  0
 59 22  2  0
 60 49  1  0
 61 52  1  0
 62 20  1  0
 63 41  1  0
 64 63  1  0
 65 42  1  0
 66 64  1  0
 67 64  1  0
 68 43  1  0
 69 68  1  0
 70 44  1  0
 71 69  1  0
 72 69  1  0
 24 25  2  0
 28 29  1  0
 33 34  1  0
 45 59  1  0
 45 62  2  0
 55 56  1  0
 57 58  2  0
 60 61  2  0
 64 65  1  0
 69 70  1  0
M  END
>  <_TriposChargeType>  (94) 
NO_CHARGES

$$$$
CPDPSC
     RDKit          3D

 26 27  0  0  0  0  0  0  0  0999 V2000
   -1.2042    3.3867    1.4708 C   0  0  0  0  0  0  0  0  0  0  0  0
   -0.2252    3.6685    2.5778 C   0  0  0  0  0  0  0  0  0  0  0  0
   -0.5358    3.1152    3.9611 C   0  0  0  0  0  0  0  0  0  0  0  0
    0.5530    3.4884    4.9667 C   0  0  0  0  0  0  0  0  0  0  0  0
    0.2570    2.9937    6.3823 C   0  0  0  0  0  0  0  0  0  0  0  0
    0.0532    1.4838    6.5112 C   0  0  0  0  0  0  0  0  0  0  0  0
    1.2305    0.6419    6.0506 C   0  0  0  0  0  0  0  0  0  0  0  0
    1.0019   -0.8571    6.1289 C   0  0  0  0  0  0  0  0  0  0  0  0
   -1.3233   -1.5304    3.0353 C   0  0  0  0  0  0  0  0  0  0  0  0
   -1.3953   -1.1192    1.5675 C   0  0  0  0  0  0  0  0  0  0  0  0
   -1.3769    0.3985    1.3127 C   0  0  0  0  0  0  0  0  0  0  0  0
   -2.4293    1.1752    2.0834 C   0  0  0  0  0  0  0  0  0  0  0  0
   -2.5147    2.6675    1.7226 C   0  0  0  0  0  0  0  0  0  0  0  0
    0.3218    4.8549   -1.3326 C   0  0  0  0  0  0  0  0  0  0  0  0
   -0.7613    4.6640   -3.5727 C   0  0  0  0  0  0  0  0  0  0  0  0
   -1.9156    4.2025   -4.2021 C   0  0  0  0  0  0  0  0  0  0  0  0
   -2.0657    4.3286   -5.5701 C   0  0  0  0  0  0  0  0  0  0  0  0
    0.0671    5.3889   -5.7052 C   0  0  0  0  0  0  0  0  0  0  0  0
   -1.0371    3.7670    0.2671 N   0  0  0  0  0  0  0  0  0  0  0  0
   -0.6818    4.4864   -2.1847 N   0  0  0  0  0  0  0  0  0  0  0  0
   -0.1812   -1.3748    5.2845 C   0  0  0  0  0  0  0  0  0  0  0  0
   -0.0979   -1.0359    3.8014 C   0  0  0  0  0  0  0  0  0  0  0  0
   -1.0724    4.9183   -6.3347 C   0  0  0  0  0  0  0  0  0  0  0  0
    0.2365    5.2636   -4.3342 C   0  0  0  0  0  0  0  0  0  0  0  0
    0.1354    4.4501   -0.0430 N   0  0  0  0  0  0  0  0  0  0  0  0
    1.3320    5.4718   -1.6781 O   0  0  0  0  0  0  0  0  0  0  0  0
  1  2  1  0
  2  3  1  0
  3  4  1  0
  4  5  1  0
  5  6  1  0
  6  7  1  0
  7  8  1  0
  9 10  1  0
 10 11  1  0
 11 12  1  0
 12 13  1  0
 13  1  1  0
 14 20  1  0
 15 16  2  0
 16 17  1  0
 19  1  2  0
 20 15  1  0
 21  8  1  0
 22  9  1  0
 23 17  2  0
 24 15  1  0
 25 14  1  0
 26 14  2  0
 18 23  1  0
 18 24  2  0
 19 25  1  0
 21 22  1  0
M  END
>  <_TriposChargeType>  (95) 
NO_CHARGES

$$$$
CUQYUI
     RDKit          3D

 56 56  0  0  0  0  0  0  0  0999 V2000
    5.4720    2.1431    5.6547 O   0  0  0  0  0  0  0  0  0  0  0  0
    8.5018    2.0401    6.8906 O   0  0  0  0  0  0  0  0  0  0  0  0
    9.6824    5.2267    9.0211 O   0  0  0  0  0  0  0  0  0  0  0  0
   13.1251    2.9409    8.7375 O   0  0  0  0  0  0  0  0  0  0  0  0
   13.3845    0.9592    5.3608 O   0  0  0  0  0  0  0  0  0  0  0  0
    9.3400   -0.2995    3.5531 O   0  0  0  0  0  0  0  0  0  0  0  0
    7.5437   -2.4823    1.0606 O   0  0  0  0  0  0  0  0  0  0  0  0
    4.4980   -1.9816    3.7237 O   0  0  0  0  0  0  0  0  0  0  0  0
   10.9635    0.5802   10.1128 O   0  0  0  0  0  0  0  0  0  0  0  0
    7.1678   -2.9549    5.8369 O   0  0  0  0  0  0  0  0  0  0  0  0
    6.3508   -0.6972    3.6061 N   0  0  0  0  0  0  0  0  0  0  0  0
    6.5096    0.2082    6.1320 N   0  0  0  0  0  0  0  0  0  0  0  0
    7.0796    2.7841    8.4677 N   0  0  0  0  0  0  0  0  0  0  0  0
    9.6171    3.0415    9.5283 N   0  0  0  0  0  0  0  0  0  0  0  0
   11.3023    2.6718    7.4163 N   0  0  0  0  0  0  0  0  0  0  0  0
   11.1840    0.5287    5.3884 N   0  0  0  0  0  0  0  0  0  0  0  0
   10.6123   -2.0752    2.9133 N   0  0  0  0  0  0  0  0  0  0  0  0
    7.9636   -2.9222    3.2118 N   0  0  0  0  0  0  0  0  0  0  0  0
    5.6838    0.5732    3.8482 C   0  0  1  0  0  0  0  0  0  0  0  0
    5.8691    1.0341    5.3077 C   0  0  0  0  0  0  0  0  0  0  0  0
    6.6772    0.6060    7.5327 C   0  0  2  0  0  0  0  0  0  0  0  0
    7.4731    1.8974    7.5823 C   0  0  0  0  0  0  0  0  0  0  0  0
    7.6266    4.1200    8.5265 C   0  0  2  0  0  0  0  0  0  0  0  0
    9.0930    4.1598    9.0649 C   0  0  0  0  0  0  0  0  0  0  0  0
   11.0182    2.9479    9.8534 C   0  0  2  0  0  0  0  0  0  0  0  0
   11.8934    2.8473    8.6083 C   0  0  0  0  0  0  0  0  0  0  0  0
   11.9763    2.6999    6.1493 C   0  0  1  0  0  0  0  0  0  0  0  0
   12.2357    1.3125    5.5890 C   0  0  0  0  0  0  0  0  0  0  0  0
   11.2723   -0.8282    4.8777 C   0  0  2  0  0  0  0  0  0  0  0  0
   10.3370   -0.9967    3.6914 C   0  0  0  0  0  0  0  0  0  0  0  0
    9.8465   -2.4262    1.7177 C   0  0  2  0  0  0  0  0  0  0  0  0
    8.3448   -2.5853    1.9691 C   0  0  0  0  0  0  0  0  0  0  0  0
    6.5643   -3.1468    3.5704 C   0  0  2  0  0  0  0  0  0  0  0  0
    5.7244   -1.8881    3.6027 C   0  0  0  0  0  0  0  0  0  0  0  0
    5.9908    1.6798    2.8314 C   0  0  0  0  0  0  0  0  0  0  0  0
    5.6944    1.1955    1.4272 C   0  0  0  0  0  0  0  0  0  0  0  0
    7.3831    2.2109    2.9571 C   0  0  0  0  0  0  0  0  0  0  0  0
    7.3284   -0.5030    8.3363 C   0  0  0  0  0  0  0  0  0  0  0  0
    7.3672   -0.2269    9.8280 C   0  0  0  0  0  0  0  0  0  0  0  0
    6.7531    5.0793    9.3081 C   0  0  2  0  0  0  0  0  0  0  0  0
    6.5361    4.6394   10.7446 C   0  0  0  0  0  0  0  0  0  0  0  0
    5.9308    5.6876   11.6784 C   0  0  0  0  0  0  0  0  0  0  0  0
    5.4561    5.3156    8.5541 C   0  0  0  0  0  0  0  0  0  0  0  0
   11.3005    1.7945   10.7791 C   0  0  1  0  0  0  0  0  0  0  0  0
   10.5717    1.9255   12.0911 C   0  0  0  0  0  0  0  0  0  0  0  0
   11.2105    3.5726    5.1579 C   0  0  0  0  0  0  0  0  0  0  0  0
   11.2193    5.0278    5.6374 C   0  0  0  0  0  0  0  0  0  0  0  0
   11.7928    3.4883    3.8159 C   0  0  0  0  0  0  0  0  0  0  0  0
   10.9193   -1.8600    5.9464 C   0  0  0  0  0  0  0  0  0  0  0  0
   11.8052   -1.7524    7.1730 C   0  0  0  0  0  0  0  0  0  0  0  0
   10.4553   -3.7176    1.1298 C   0  0  2  0  0  0  0  0  0  0  0  0
    9.8694   -4.0756   -0.2536 C   0  0  0  0  0  0  0  0  0  0  0  0
   10.1535   -3.1257   -1.3027 C   0  0  0  0  0  0  0  0  0  0  0  0
   10.3653   -4.8968    2.0521 C   0  0  0  0  0  0  0  0  0  0  0  0
    6.5026   -3.8018    4.9158 C   0  0  1  0  0  0  0  0  0  0  0  0
    7.1113   -5.1869    4.9008 C   0  0  0  0  0  0  0  0  0  0  0  0
  1 20  2  0
  2 22  2  0
  3 24  2  0
  4 26  2  0
  5 28  2  0
  6 30  2  0
  7 32  2  0
  8 34  2  0
 44  9  1  0
 55 10  1  0
 11 19  1  0
 12 20  1  0
 13 22  1  0
 14 24  1  0
 15 26  1  0
 16 28  1  0
 17 30  1  0
 18 32  1  0
 19 20  1  0
 21 12  1  0
 22 21  1  0
 23 13  1  1
 24 23  1  0
 25 14  1  6
 26 25  1  0
 27 15  1  0
 28 27  1  0
 29 16  1  0
 30 29  1  0
 31 17  1  1
 32 31  1  0
 33 18  1  1
 34 11  1  0
 19 35  1  6
 36 35  1  0
 37 35  1  0
 21 38  1  1
 39 38  1  0
 40 23  1  0
 40 41  1  0
 42 41  1  0
 40 43  1  6
 44 25  1  0
 44 45  1  1
 27 46  1  6
 47 46  1  0
 48 46  1  0
 29 49  1  1
 50 49  1  0
 51 31  1  0
 51 52  1  0
 53 52  1  0
 51 54  1  1
 55 33  1  0
 55 56  1  6
 33 34  1  0
M  CHG  2   9  -1  10  -1
M  END
>  <_TriposChargeType>  (96) 
NO_CHARGES

$$$$
CUZQUJ
     RDKit          3D

 30 32  0  0  0  0  0  0  0  0999 V2000
    7.0346    1.6312    6.0423 S   0  0  0  0  0  0  0  0  0  0  0  0
    5.3454    1.5334    3.5534 S   0  0  0  0  0  0  0  0  0  0  0  0
    5.2332    7.8549    7.0587 O   0  0  0  0  0  0  0  0  0  0  0  0
    2.8236    5.3224    3.5022 O   0  0  0  0  0  0  0  0  0  0  0  0
    4.0865    5.7198    5.3050 O   0  0  0  0  0  0  0  0  0  0  0  0
    3.4340    2.8930    2.2940 O   0  0  0  0  0  0  0  0  0  0  0  0
    5.2520    3.4688    5.2673 N   0  0  0  0  0  0  0  0  0  0  0  0
    4.3138    3.7606    4.2714 N   0  0  0  0  0  0  0  0  0  0  0  0
    7.0833    2.8459    7.3690 C   0  0  0  0  0  0  0  0  0  0  0  0
    5.8294    2.3491    5.0134 C   0  0  0  0  0  0  0  0  0  0  0  0
    4.1738    2.8408    3.2283 C   0  0  0  0  0  0  0  0  0  0  0  0
    3.6500    5.0102    4.2964 C   0  0  0  0  0  0  0  0  0  0  0  0
    3.5532    7.0727    5.4764 C   0  0  0  0  0  0  0  0  0  0  0  0
    4.6834    7.9861    5.7617 C   0  0  0  0  0  0  0  0  0  0  0  0
    6.1767    6.8128    7.1548 C   0  0  0  0  0  0  0  0  0  0  0  0
    5.8957    2.8459    8.3076 C   0  0  0  0  0  0  0  0  0  0  0  0
    5.9445    1.6312    9.6343 S   0  0  0  0  0  0  0  0  0  0  0  0
    7.1496    2.3491   10.6632 C   0  0  0  0  0  0  0  0  0  0  0  0
    7.6337    1.5334   12.1232 S   0  0  0  0  0  0  0  0  0  0  0  0
    8.8053    2.8408   12.4483 C   0  0  0  0  0  0  0  0  0  0  0  0
    9.5450    2.8930   13.3826 O   0  0  0  0  0  0  0  0  0  0  0  0
    8.6652    3.7606   11.4053 N   0  0  0  0  0  0  0  0  0  0  0  0
    7.7271    3.4688   10.4093 N   0  0  0  0  0  0  0  0  0  0  0  0
    9.3290    5.0102   11.3802 C   0  0  0  0  0  0  0  0  0  0  0  0
   10.1554    5.3224   12.1745 O   0  0  0  0  0  0  0  0  0  0  0  0
    8.8925    5.7198   10.3716 O   0  0  0  0  0  0  0  0  0  0  0  0
    9.4258    7.0727   10.2002 C   0  0  0  0  0  0  0  0  0  0  0  0
    8.2957    7.9861    9.9149 C   0  0  0  0  0  0  0  0  0  0  0  0
    7.7458    7.8549    8.6180 O   0  0  0  0  0  0  0  0  0  0  0  0
    6.8024    6.8128    8.5218 C   0  0  0  0  0  0  0  0  0  0  0  0
  1  9  1  0
  2 10  1  0
  3 14  1  0
  4 12  2  0
  5 12  1  0
  6 11  2  0
  7  8  1  0
  8 11  1  0
 10  1  1  0
 11  2  1  0
 12  8  1  0
 13  5  1  0
 14 13  1  0
 15  3  1  0
 16  9  1  0
 17 16  1  0
 18 17  1  0
 19 18  1  0
 20 19  1  0
 21 20  2  0
 22 20  1  0
 23 18  2  0
 24 22  1  0
 25 24  2  0
 26 24  1  0
 27 26  1  0
 28 27  1  0
 29 28  1  0
 30 15  1  0
  7 10  2  0
 22 23  1  0
 29 30  1  0
M  END
>  <_TriposChargeType>  (97) 
NO_CHARGES

$$$$
CYDECO
     RDKit          3D

 11 11  0  0  0  0  0  0  0  0999 V2000
   -3.4564   -1.0464    7.2470 C   0  0  0  0  0  0  0  0  0  0  0  0
   -3.4771   -2.3730    7.9738 C   0  0  0  0  0  0  0  0  0  0  0  0
   -2.2136   -0.6505    6.4705 C   0  0  0  0  0  0  0  0  0  0  0  0
   -0.8446   -0.7646    7.1590 C   0  0  0  0  0  0  0  0  0  0  0  0
   -0.5895    0.2516    8.2754 C   0  0  0  0  0  0  0  0  0  0  0  0
   -1.5844    0.1948    9.4369 C   0  0  0  0  0  0  0  0  0  0  0  0
   -1.5352   -1.1083   10.2449 C   0  0  0  0  0  0  0  0  0  0  0  0
   -2.8064   -1.4144   11.0476 C   0  0  0  0  0  0  0  0  0  0  0  0
   -4.1450   -1.3698   10.2968 C   0  0  0  0  0  0  0  0  0  0  0  0
   -4.3918   -2.4202    9.2042 C   0  0  0  0  0  0  0  0  0  0  0  0
   -4.4534   -0.3450    7.2083 O   0  0  0  0  0  0  0  0  0  0  0  0
  1  2  1  0
  2 10  1  0
  3  1  1  0
  4  3  1  0
  5  4  1  0
  6  5  1  0
  7  6  1  0
  8  7  1  0
  9  8  1  0
 10  9  1  0
 11  1  2  0
M  END
>  <_TriposChargeType>  (98) 
NO_CHARGES

$$$$
DAFKUR
     RDKit          3D

 46 48  0  0  0  0  0  0  0  0999 V2000
   10.4903    1.7844    6.9797 O   0  0  0  0  0  0  0  0  0  0  0  0
   11.7059   -1.2262    6.6781 O   0  0  0  0  0  0  0  0  0  0  0  0
    9.0743   -0.9928    8.4392 O   0  0  0  0  0  0  0  0  0  0  0  0
    9.2228   -2.2728    6.4904 O   0  0  0  0  0  0  0  0  0  0  0  0
    7.5129    0.5036    7.0404 O   0  0  0  0  0  0  0  0  0  0  0  0
   10.1852    1.9981   10.3565 C   0  0  0  0  0  0  0  0  0  0  0  0
   10.1342    1.3127   11.5702 C   0  0  0  0  0  0  0  0  0  0  0  0
    8.9163    1.0866   12.2059 C   0  0  0  0  0  0  0  0  0  0  0  0
    7.7194    1.5400   11.6602 C   0  0  0  0  0  0  0  0  0  0  0  0
    7.7795    2.2566   10.4638 C   0  0  0  0  0  0  0  0  0  0  0  0
    8.9925    2.4742    9.8210 C   0  0  0  0  0  0  0  0  0  0  0  0
   11.4945    2.2458    9.6391 C   0  0  0  0  0  0  0  0  0  0  0  0
   11.9999    1.0901    8.7447 C   0  0  0  0  0  0  0  0  0  0  0  0
   11.0307    0.8858    7.5859 C   0  0  0  0  0  0  0  0  0  0  0  0
   10.7950   -0.5249    7.0357 C   0  0  0  0  0  0  0  0  0  0  0  0
    9.3284   -1.0096    7.0607 C   0  0  0  0  0  0  0  0  0  0  0  0
    8.2848   -0.0994    6.3335 C   0  0  0  0  0  0  0  0  0  0  0  0
    8.2037   -0.0545    4.8097 C   0  0  0  0  0  0  0  0  0  0  0  0
    6.3933    1.2867   12.3452 C   0  0  0  0  0  0  0  0  0  0  0  0
   12.1963   -0.1941    9.5578 C   0  0  0  0  0  0  0  0  0  0  0  0
   13.3286    1.5281    8.0935 C   0  0  0  0  0  0  0  0  0  0  0  0
    9.5980   -0.1139    4.1692 C   0  0  0  0  0  0  0  0  0  0  0  0
    7.5027    1.2465    4.4171 C   0  0  0  0  0  0  0  0  0  0  0  0
    5.5692    0.0545   11.8323 C   0  0  0  0  0  0  0  0  0  0  0  0
    5.4881    0.0994   10.3086 C   0  0  0  0  0  0  0  0  0  0  0  0
    6.2599   -0.5036    9.6016 O   0  0  0  0  0  0  0  0  0  0  0  0
    4.4444    1.0096    9.5813 C   0  0  0  0  0  0  0  0  0  0  0  0
    4.6985    0.9928    8.2029 O   0  0  0  0  0  0  0  0  0  0  0  0
    4.5501    2.2728   10.1516 O   0  0  0  0  0  0  0  0  0  0  0  0
    2.9778    0.5249    9.6063 C   0  0  0  0  0  0  0  0  0  0  0  0
    2.0669    1.2262    9.9639 O   0  0  0  0  0  0  0  0  0  0  0  0
    2.7422   -0.8858    9.0561 C   0  0  0  0  0  0  0  0  0  0  0  0
    3.2825   -1.7844    9.6624 O   0  0  0  0  0  0  0  0  0  0  0  0
    1.7729   -1.0901    7.8973 C   0  0  0  0  0  0  0  0  0  0  0  0
    2.2784   -2.2458    7.0030 C   0  0  0  0  0  0  0  0  0  0  0  0
    3.5876   -1.9981    6.2855 C   0  0  0  0  0  0  0  0  0  0  0  0
    3.6386   -1.3127    5.0718 C   0  0  0  0  0  0  0  0  0  0  0  0
    4.8565   -1.0866    4.4361 C   0  0  0  0  0  0  0  0  0  0  0  0
    6.0534   -1.5400    4.9818 C   0  0  0  0  0  0  0  0  0  0  0  0
    5.9934   -2.2566    6.1782 C   0  0  0  0  0  0  0  0  0  0  0  0
    4.7803   -2.4742    6.8211 C   0  0  0  0  0  0  0  0  0  0  0  0
    7.3795   -1.2867    4.2968 C   0  0  0  0  0  0  0  0  0  0  0  0
    1.5765    0.1941    7.0842 C   0  0  0  0  0  0  0  0  0  0  0  0
    0.4443   -1.5281    8.5485 C   0  0  0  0  0  0  0  0  0  0  0  0
    4.1748    0.1139   12.4729 C   0  0  0  0  0  0  0  0  0  0  0  0
    6.2701   -1.2465   12.2249 C   0  0  0  0  0  0  0  0  0  0  0  0
  1 14  2  0
  2 15  2  0
  3 16  1  0
  4 16  1  0
  5 17  2  0
  6  7  2  0
  7  8  1  0
  8  9  2  0
  9 10  1  0
 10 11  2  0
 11  6  1  0
 12  6  1  0
 13 12  1  0
 14 13  1  0
 15 14  1  0
 16 15  1  0
 17 16  1  0
 18 17  1  0
 19  9  1  0
 20 13  1  0
 21 13  1  0
 22 18  1  0
 23 18  1  0
 24 19  1  0
 25 24  1  0
 26 25  2  0
 27 25  1  0
 28 27  1  0
 29 27  1  0
 30 27  1  0
 31 30  2  0
 32 30  1  0
 33 32  2  0
 34 32  1  0
 35 34  1  0
 36 35  1  0
 37 36  2  0
 38 37  1  0
 39 38  2  0
 40 39  1  0
 41 36  1  0
 42 18  1  0
 43 34  1  0
 44 34  1  0
 45 24  1  0
 46 24  1  0
 39 42  1  0
 40 41  2  0
M  END
>  <_TriposChargeType>  (99) 
NO_CHARGES

$$$$
DAZGEQ01
     RDKit          3D

 18 18  0  0  0  0  0  0  0  0999 V2000
    7.3884   -0.4990    3.1495 C   0  0  0  0  0  0  0  0  0  0  0  0
    8.6200   -0.1909    3.9241 C   0  0  0  0  0  0  0  0  0  0  0  0
    8.4129   -0.4900    5.3952 C   0  0  0  0  0  0  0  0  0  0  0  0
    7.3896    0.4155    5.9743 C   0  0  0  0  0  0  0  0  0  0  0  0
    6.1823    0.0517    6.3173 C   0  0  0  0  0  0  0  0  0  0  0  0
    5.1035    0.9664    6.7575 C   0  0  0  0  0  0  0  0  0  0  0  0
    3.9494    0.9910    5.7614 C   0  0  0  0  0  0  0  0  0  0  0  0
    4.3956    1.5760    4.4637 C   0  0  0  0  0  0  0  0  0  0  0  0
    4.7706    1.2052    2.1132 C   0  0  1  0  0  0  0  0  0  0  0  0
    5.8870    0.3613    1.5429 C   0  0  0  0  0  0  0  0  0  0  0  0
    3.6330    1.2040    1.1288 C   0  0  0  0  0  0  0  0  0  0  0  0
    1.7449    0.0467    0.4043 C   0  0  0  0  0  0  0  0  0  0  0  0
    4.3685    0.7649    3.4113 N   0  0  0  0  0  0  0  0  0  0  0  0
    6.7759   -1.5176    3.2052 O   0  0  0  0  0  0  0  0  0  0  0  0
    4.7766    2.7324    4.3902 O   0  0  0  0  0  0  0  0  0  0  0  0
    2.8530    0.1540    1.3001 O   0  0  0  0  0  0  0  0  0  0  0  0
    3.4786    2.0196    0.2827 O   0  0  0  0  0  0  0  0  0  0  0  0
    7.0475    0.5215    2.3495 O   0  0  0  0  0  0  0  0  0  0  0  0
  1  2  1  0
  3  2  1  0
  4  3  1  0
  5  4  2  0
  6  5  1  0
  7  6  1  0
  8  7  1  0
 10  9  1  0
  9 11  1  6
 13  8  1  0
 14  1  2  0
 15  8  2  0
 16 11  1  0
 17 11  2  0
 18  1  1  0
  9 13  1  0
 10 18  1  0
 12 16  1  0
M  END
>  <_TriposChargeType>  (100) 
NO_CHARGES

$$$$
DEMHUY01
     RDKit          3D

 24 24  0  0  0  0  0  0  0  0999 V2000
    0.3386   16.0952    8.7354 O   0  0  0  0  0  0  0  0  0  0  0  0
    1.6169   17.9059    9.0556 O   0  0  0  0  0  0  0  0  0  0  0  0
   -0.1271   14.7421   11.5671 O   0  0  0  0  0  0  0  0  0  0  0  0
    1.1960   16.8457    9.4333 C   0  0  0  0  0  0  0  0  0  0  0  0
    1.5479   16.2042   10.7430 C   0  0  0  0  0  0  0  0  0  0  0  0
    0.9068   14.8486   10.9346 C   0  0  0  0  0  0  0  0  0  0  0  0
    1.6083   13.6600   10.3429 C   0  0  0  0  0  0  0  0  0  0  0  0
    0.7480   12.4230   10.1712 C   0  0  0  0  0  0  0  0  0  0  0  0
    1.5423   11.1957    9.7440 C   0  0  0  0  0  0  0  0  0  0  0  0
    0.6797    9.9781    9.4733 C   0  0  0  0  0  0  0  0  0  0  0  0
    1.4730    8.7242    9.1235 C   0  0  0  0  0  0  0  0  0  0  0  0
   -0.1114   16.5842    7.4354 C   0  0  0  0  0  0  0  0  0  0  0  0
    0.6326    7.6228    8.5358 C   0  0  0  0  0  0  0  0  0  0  0  0
   -0.9519   15.4828    6.8476 C   0  0  0  0  0  0  0  0  0  0  0  0
    0.1825    8.1118    7.2357 O   0  0  0  0  0  0  0  0  0  0  0  0
   -0.1586   14.2289    6.4979 C   0  0  0  0  0  0  0  0  0  0  0  0
   -0.6749    7.3613    6.5378 C   0  0  0  0  0  0  0  0  0  0  0  0
   -1.0211   13.0113    6.2271 C   0  0  0  0  0  0  0  0  0  0  0  0
   -1.0958    6.3011    6.9155 O   0  0  0  0  0  0  0  0  0  0  0  0
   -1.0268    8.0028    5.2281 C   0  0  0  0  0  0  0  0  0  0  0  0
   -0.2269   11.7840    5.7999 C   0  0  0  0  0  0  0  0  0  0  0  0
   -0.3857    9.3584    5.0365 C   0  0  0  0  0  0  0  0  0  0  0  0
   -1.0872   10.5470    5.6282 C   0  0  0  0  0  0  0  0  0  0  0  0
    0.6482    9.4649    4.4040 O   0  0  0  0  0  0  0  0  0  0  0  0
  1  4  1  0
  2  4  2  0
  3  6  2  0
  4  5  1  0
  5  6  1  0
  6  7  1  0
  7  8  1  0
  8  9  1  0
  9 10  1  0
 10 11  1  0
 12  1  1  0
 13 11  1  0
 14 12  1  0
 15 13  1  0
 16 14  1  0
 17 15  1  0
 18 16  1  0
 19 17  2  0
 20 17  1  0
 21 18  1  0
 22 20  1  0
 23 21  1  0
 24 22  2  0
 22 23  1  0
M  END
>  <_TriposChargeType>  (101) 
NO_CHARGES

$$$$
DEMJAG10
     RDKit          3D

 26 26  0  0  0  0  0  0  0  0999 V2000
   -1.5539    4.8449    1.6795 O   0  0  0  0  0  0  0  0  0  0  0  0
   -1.8315    5.7756    0.7666 C   0  0  0  0  0  0  0  0  0  0  0  0
   -2.7932    5.7516    0.0423 O   0  0  0  0  0  0  0  0  0  0  0  0
   -0.7825    6.8518    0.7541 C   0  0  0  0  0  0  0  0  0  0  0  0
   -0.5883    7.5566    2.0759 C   0  0  0  0  0  0  0  0  0  0  0  0
    0.5107    7.7986    2.4484 O   0  0  0  0  0  0  0  0  0  0  0  0
   -1.7978    8.0038    2.8277 C   0  0  0  0  0  0  0  0  0  0  0  0
   -1.5334    8.3840    4.2696 C   0  0  0  0  0  0  0  0  0  0  0  0
   -2.7693    8.8347    5.0190 C   0  0  0  0  0  0  0  0  0  0  0  0
   -2.4835    9.1457    6.4814 C   0  0  0  0  0  0  0  0  0  0  0  0
   -3.6875    9.5816    7.2869 C   0  0  0  0  0  0  0  0  0  0  0  0
   -3.3351    9.8607    8.7413 C   0  0  0  0  0  0  0  0  0  0  0  0
   -2.4962    3.7415    1.7994 C   0  0  0  0  0  0  0  0  0  0  0  0
   -4.4926   10.2171    9.6256 C   0  0  0  0  0  0  0  0  0  0  0  0
   -3.6537    4.0979    2.6837 C   0  0  0  0  0  0  0  0  0  0  0  0
   -5.4349    9.1137    9.7456 O   0  0  0  0  0  0  0  0  0  0  0  0
   -3.3013    4.3770    4.1382 C   0  0  0  0  0  0  0  0  0  0  0  0
   -5.1572    8.1830   10.6585 C   0  0  0  0  0  0  0  0  0  0  0  0
   -4.5053    4.8129    4.9436 C   0  0  0  0  0  0  0  0  0  0  0  0
   -4.1956    8.2069   11.3828 O   0  0  0  0  0  0  0  0  0  0  0  0
   -6.2063    7.1068   10.6710 C   0  0  0  0  0  0  0  0  0  0  0  0
   -4.2194    5.1239    6.4060 C   0  0  0  0  0  0  0  0  0  0  0  0
   -6.4004    6.4019    9.3491 C   0  0  0  0  0  0  0  0  0  0  0  0
   -5.4553    5.5746    7.1555 C   0  0  0  0  0  0  0  0  0  0  0  0
   -7.4994    6.1600    8.9767 O   0  0  0  0  0  0  0  0  0  0  0  0
   -5.1909    5.9548    8.5974 C   0  0  0  0  0  0  0  0  0  0  0  0
  1  2  1  0
  2  3  2  0
  4  2  1  0
  5  4  1  0
  6  5  2  0
  7  5  1  0
  8  7  1  0
  9  8  1  0
 10  9  1  0
 11 10  1  0
 12 11  1  0
 13  1  1  0
 14 12  1  0
 15 13  1  0
 16 14  1  0
 17 15  1  0
 18 16  1  0
 19 17  1  0
 20 18  2  0
 21 18  1  0
 22 19  1  0
 23 21  1  0
 24 22  1  0
 25 23  2  0
 26 23  1  0
 24 26  1  0
M  END
>  <_TriposChargeType>  (102) 
NO_CHARGES

$$$$
DETHAL
     RDKit          3D

 26 28  0  0  0  0  0  0  0  0999 V2000
   -5.4534    2.2145    7.3541 N   0  0  0  0  0  0  0  0  0  0  0  0
   -7.4644    3.7311    8.4310 N   0  0  0  0  0  0  0  0  0  0  0  0
   -6.3058    1.9724    6.1929 C   0  0  0  0  0  0  0  0  0  0  0  0
   -7.2760    0.8643    6.5031 C   0  0  0  0  0  0  0  0  0  0  0  0
   -8.0287    0.5732    5.3285 O   0  0  0  0  0  0  0  0  0  0  0  0
   -9.0013   -0.4476    5.5083 C   0  0  0  0  0  0  0  0  0  0  0  0
  -10.2765    0.0446    6.1063 C   0  0  0  0  0  0  0  0  0  0  0  0
  -10.1203    0.2074    7.5036 O   0  0  0  0  0  0  0  0  0  0  0  0
  -11.1147    1.0344    8.0960 C   0  0  0  0  0  0  0  0  0  0  0  0
   -4.2520    1.3820    7.3710 C   0  0  0  0  0  0  0  0  0  0  0  0
   -5.1784    3.6019    7.5969 C   0  0  0  0  0  0  0  0  0  0  0  0
   -6.3951    4.4125    8.0095 C   0  0  0  0  0  0  0  0  0  0  0  0
   -6.3669    5.7963    7.9814 C   0  0  0  0  0  0  0  0  0  0  0  0
   -7.4644    6.4914    8.4310 C   0  0  0  0  0  0  0  0  0  0  0  0
  -10.6767    1.3820    9.4911 C   0  0  0  0  0  0  0  0  0  0  0  0
   -3.8141    1.0344    8.7660 C   0  0  0  0  0  0  0  0  0  0  0  0
   -8.5337    4.4125    8.8526 C   0  0  0  0  0  0  0  0  0  0  0  0
   -8.5618    5.7963    8.8807 C   0  0  0  0  0  0  0  0  0  0  0  0
   -9.4753    2.2145    9.5079 N   0  0  0  0  0  0  0  0  0  0  0  0
   -4.8084    0.2074    9.3584 O   0  0  0  0  0  0  0  0  0  0  0  0
   -9.7503    3.6019    9.2651 C   0  0  0  0  0  0  0  0  0  0  0  0
   -8.6229    1.9724   10.6692 C   0  0  0  0  0  0  0  0  0  0  0  0
   -4.6522    0.0446   10.7557 C   0  0  0  0  0  0  0  0  0  0  0  0
   -7.6528    0.8643   10.3589 C   0  0  0  0  0  0  0  0  0  0  0  0
   -5.9274   -0.4476   11.3538 C   0  0  0  0  0  0  0  0  0  0  0  0
   -6.9001    0.5732   11.5335 O   0  0  0  0  0  0  0  0  0  0  0  0
  1  3  1  0
  2 12  2  0
  3  4  1  0
  4  5  1  0
  5  6  1  0
  6  7  1  0
  7  8  1  0
  8  9  1  0
 10  1  1  0
 11  1  1  0
 12 11  1  0
 13 12  1  0
 14 13  2  0
 15  9  1  0
 16 10  1  0
 17  2  1  0
 18 14  1  0
 19 15  1  0
 20 16  1  0
 21 17  1  0
 22 19  1  0
 23 20  1  0
 24 22  1  0
 25 23  1  0
 26 24  1  0
 17 18  2  0
 19 21  1  0
 25 26  1  0
M  END
>  <_TriposChargeType>  (103) 
NO_CHARGES

$$$$
DEWCOY
     RDKit          3D

 77 84  0  0  0  0  0  0  0  0999 V2000
    2.6703    8.4601   11.1159 O   0  0  0  0  0  0  0  0  0  0  0  0
    4.2239   10.1879   11.3881 O   0  0  0  0  0  0  0  0  0  0  0  0
    5.6598   10.3321   13.7584 O   0  0  0  0  0  0  0  0  0  0  0  0
    2.7544    8.7831    8.3440 O   0  0  0  0  0  0  0  0  0  0  0  0
    5.6029    8.1767    8.0691 O   0  0  0  0  0  0  0  0  0  0  0  0
    7.0311    8.0233   10.4262 O   0  0  0  0  0  0  0  0  0  0  0  0
    9.1539    8.7658   11.0860 O   0  0  0  0  0  0  0  0  0  0  0  0
   11.5847    8.6744   12.4377 O   0  0  0  0  0  0  0  0  0  0  0  0
    8.1515    6.8786    8.1069 O   0  0  0  0  0  0  0  0  0  0  0  0
    9.6706    4.8857    9.5844 O   0  0  0  0  0  0  0  0  0  0  0  0
    9.8738    5.3997   12.3501 O   0  0  0  0  0  0  0  0  0  0  0  0
   11.5715    4.9375   17.0771 O   0  0  0  0  0  0  0  0  0  0  0  0
   11.1901    5.3611   14.2900 O   0  0  0  0  0  0  0  0  0  0  0  0
   11.1139    3.1102   11.4154 O   0  0  0  0  0  0  0  0  0  0  0  0
   10.2011    1.4281   13.5800 O   0  0  0  0  0  0  0  0  0  0  0  0
    8.9203    2.8370   15.6825 O   0  0  0  0  0  0  0  0  0  0  0  0
    8.5245    2.8359   17.9705 O   0  0  0  0  0  0  0  0  0  0  0  0
    6.8004    3.3408   20.2095 O   0  0  0  0  0  0  0  0  0  0  0  0
    8.8732    0.1249   15.5742 O   0  0  0  0  0  0  0  0  0  0  0  0
    6.1088   -0.1564   16.3646 O   0  0  0  0  0  0  0  0  0  0  0  0
    4.9576    2.0274   17.6367 O   0  0  0  0  0  0  0  0  0  0  0  0
    3.5045    2.8339   19.2448 O   0  0  0  0  0  0  0  0  0  0  0  0
    3.1156    5.5287   19.5428 O   0  0  0  0  0  0  0  0  0  0  0  0
    3.8421   -0.5211   17.8633 O   0  0  0  0  0  0  0  0  0  0  0  0
    1.2088    0.2560   17.0207 O   0  0  0  0  0  0  0  0  0  0  0  0
    0.9788    3.0878   16.6112 O   0  0  0  0  0  0  0  0  0  0  0  0
   -0.8022    4.5434   16.9425 O   0  0  0  0  0  0  0  0  0  0  0  0
   -2.1587    6.9741   16.3656 O   0  0  0  0  0  0  0  0  0  0  0  0
   -0.5725    1.4718   15.0036 O   0  0  0  0  0  0  0  0  0  0  0  0
   -0.9858    3.5256   12.9450 O   0  0  0  0  0  0  0  0  0  0  0  0
   -0.0410    6.0325   13.6665 O   0  0  0  0  0  0  0  0  0  0  0  0
    0.0303    8.3514   13.6669 O   0  0  0  0  0  0  0  0  0  0  0  0
    1.7196   10.7536   13.6011 O   0  0  0  0  0  0  0  0  0  0  0  0
   -1.4083    5.9390   11.3225 O   0  0  0  0  0  0  0  0  0  0  0  0
    0.4504    7.5175    9.6485 O   0  0  0  0  0  0  0  0  0  0  0  0
    3.1999    9.6445   10.5751 C   0  0  1  0  0  0  0  0  0  0  0  0
    3.7570    9.3143    9.1899 C   0  0  1  0  0  0  0  0  0  0  0  0
    4.9545    8.3738    9.3108 C   0  0  2  0  0  0  0  0  0  0  0  0
    5.9816    8.9883   10.2567 C   0  0  1  0  0  0  0  0  0  0  0  0
    5.3403    9.3123   11.5978 C   0  0  1  0  0  0  0  0  0  0  0  0
    6.2943   10.0721   12.5117 C   0  0  0  0  0  2  0  0  0  0  0  0
    8.3347    8.3920   10.0053 C   0  0  1  0  0  0  0  0  0  0  0  0
    8.9254    7.2067    9.2666 C   0  0  1  0  0  0  0  0  0  0  0  0
    9.0753    6.0294   10.2113 C   0  0  2  0  0  0  0  0  0  0  0  0
    9.9117    6.4662   11.4048 C   0  0  1  0  0  0  0  0  0  0  0  0
    9.3668    7.7349   12.0603 C   0  0  1  0  0  0  0  0  0  0  0  0
   10.3402    8.3311   13.0643 C   0  0  0  0  0  0  0  0  0  0  0  0
   11.1054    4.9832   12.9374 C   0  0  1  0  0  0  0  0  0  0  0  0
   11.1595    3.4698   12.7976 C   0  0  1  0  0  0  0  0  0  0  0  0
   10.0431    2.8410   13.6072 C   0  0  2  0  0  0  0  0  0  0  0  0
   10.0981    3.3479   15.0438 C   0  0  1  0  0  0  0  0  0  0  0  0
   10.1120    4.8573   15.1113 C   0  0  1  0  0  0  0  0  0  0  0  0
   10.3395    5.3936   16.5149 C   0  0  0  0  0  0  0  0  0  0  0  0
    9.0545    2.1077   16.8782 C   0  0  1  0  0  0  0  0  0  0  0  0
    8.3233    0.7831   16.6969 C   0  0  1  0  0  0  0  0  0  0  0  0
    6.8274    1.0543   16.5232 C   0  0  2  0  0  0  0  0  0  0  0  0
    6.3626    1.8121   17.7529 C   0  0  1  0  0  0  0  0  0  0  0  0
    7.1230    3.1325   17.8330 C   0  0  1  0  0  0  0  0  0  0  0  0
    6.7156    4.0274   18.9606 C   0  0  0  0  0  0  0  0  0  0  0  0
    4.1606    1.6993   18.7726 C   0  0  1  0  0  0  0  0  0  0  0  0
    3.1651    0.6369   18.3397 C   0  0  1  0  0  0  0  0  0  0  0  0
    2.2261    1.2087   17.2835 C   0  0  2  0  0  0  0  0  0  0  0  0
    1.6315    2.5302   17.7624 C   0  0  1  0  0  0  0  0  0  0  0  0
    2.6895    3.5063   18.2734 C   0  0  1  0  0  0  0  0  0  0  0  0
    2.1022    4.6887   19.0070 C   0  0  0  0  0  0  0  0  0  0  0  0
   -0.4208    3.2250   16.6461 C   0  0  1  0  0  0  0  0  0  0  0  0
   -0.9412    2.8136   15.2762 C   0  0  1  0  0  0  0  0  0  0  0  0
   -0.3984    3.7613   14.2255 C   0  0  2  0  0  0  0  0  0  0  0  0
   -0.7264    5.1955   14.6039 C   0  0  1  0  0  0  0  0  0  0  0  0
   -0.2582    5.5216   16.0283 C   0  0  1  0  0  0  0  0  0  0  0  0
   -0.7512    6.8634   16.5162 C   0  0  0  0  0  0  0  0  0  0  0  0
   -0.6866    7.2138   13.2413 C   0  0  1  0  0  0  0  0  0  0  0  0
   -0.7863    7.1640   11.7160 C   0  0  1  0  0  0  0  0  0  0  0  0
    0.5852    7.3489   11.0611 C   0  0  2  0  0  0  0  0  0  0  0  0
    1.3411    8.5099   11.6729 C   0  0  1  0  0  0  0  0  0  0  0  0
    1.3949    8.3524   13.1844 C   0  0  1  0  0  0  0  0  0  0  0  0
    2.1537    9.4332   13.9361 C   0  0  0  0  0  0  0  0  0  0  0  0
  1 36  1  0
 36  2  1  1
 39  6  1  0
 42  7  1  1
 45 11  1  0
 48 13  1  1
 51 16  1  0
 54 17  1  1
 57 21  1  0
 60 22  1  6
 63 26  1  0
 66 27  1  6
 69 31  1  0
 72 32  1  6
 37  4  1  6
 38  5  1  6
 39 38  1  0
 40  2  1  0
 41  3  1  0
 42  6  1  0
 43  9  1  6
 44 10  1  6
 45 44  1  0
 46  7  1  0
 47  8  1  0
 48 11  1  0
 49 14  1  6
 50 15  1  1
 51 50  1  0
 52 13  1  0
 53 12  1  0
 54 16  1  0
 55 19  1  6
 56 20  1  1
 57 56  1  0
 58 17  1  0
 59 18  1  0
 60 21  1  0
 61 24  1  6
 62 25  1  1
 63 62  1  0
 64 22  1  0
 65 23  1  0
 66 26  1  0
 67 29  1  6
 68 30  1  6
 69 68  1  0
 70 27  1  0
 71 28  1  0
 72 31  1  0
 73 34  1  1
 74 35  1  6
 75  1  1  0
 76 32  1  0
 77 33  1  0
 36 37  1  0
 37 38  1  0
 39 40  1  1
 40 41  1  1
 42 43  1  0
 43 44  1  0
 45 46  1  1
 46 47  1  1
 48 49  1  0
 49 50  1  0
 51 52  1  6
 52 53  1  1
 54 55  1  0
 55 56  1  0
 57 58  1  6
 58 59  1  1
 60 61  1  0
 61 62  1  0
 63 64  1  6
 64 65  1  1
 66 67  1  0
 67 68  1  0
 69 70  1  1
 70 71  1  1
 72 73  1  0
 73 74  1  0
 74 75  1  0
 75 76  1  1
 76 77  1  1
M  RAD  1  41   3
M  END
>  <_TriposChargeType>  (104) 
NO_CHARGES

$$$$
DOVXUI
     RDKit          3D

 30 32  0  0  0  0  0  0  0  0999 V2000
   -0.0031    6.2864    6.6516 C   0  0  0  0  0  0  0  0  0  0  0  0
   -1.4282    5.7537    6.8214 C   0  0  0  0  0  0  0  0  0  0  0  0
   -1.8867    5.5031    5.3860 C   0  0  0  0  0  0  0  0  0  0  0  0
   -1.2949    6.6862    4.6127 C   0  0  1  0  0  0  0  0  0  0  0  0
   -2.2600    7.8686    4.4789 C   0  0  0  0  0  0  0  0  0  0  0  0
   -2.8424   10.1653    5.1055 C   0  0  2  0  0  0  0  0  0  0  0  0
   -4.2130   10.2116    5.7777 C   0  0  0  0  0  0  0  0  0  0  0  0
   -4.1379   10.1891    7.3018 C   0  0  0  0  0  0  0  0  0  0  0  0
   -4.9979   11.4186    5.2753 C   0  0  0  0  0  0  0  0  0  0  0  0
   -0.9045   11.5729    4.7712 C   0  0  0  0  0  0  0  0  0  0  0  0
   -3.1276    7.8396    3.6086 O   0  0  0  0  0  0  0  0  0  0  0  0
   -0.8263   11.2281    3.5855 O   0  0  0  0  0  0  0  0  0  0  0  0
    0.0893   12.2721    5.3747 N   0  0  0  0  0  0  0  0  0  0  0  0
   -2.1219    8.8962    5.3304 N   0  0  0  0  0  0  0  0  0  0  0  0
   -2.0044   11.2676    5.5357 N   0  0  0  0  0  0  0  0  0  0  0  0
    0.0031   13.0012    6.6516 C   0  0  0  0  0  0  0  0  0  0  0  0
    1.4282   13.5339    6.8214 C   0  0  0  0  0  0  0  0  0  0  0  0
    1.8867   13.7845    5.3860 C   0  0  0  0  0  0  0  0  0  0  0  0
    1.2949   12.6014    4.6127 C   0  0  1  0  0  0  0  0  0  0  0  0
    2.2600   11.4190    4.4789 C   0  0  0  0  0  0  0  0  0  0  0  0
    2.8424    9.1223    5.1055 C   0  0  2  0  0  0  0  0  0  0  0  0
    4.2130    9.0760    5.7777 C   0  0  0  0  0  0  0  0  0  0  0  0
    4.1379    9.0985    7.3018 C   0  0  0  0  0  0  0  0  0  0  0  0
    4.9979    7.8690    5.2753 C   0  0  0  0  0  0  0  0  0  0  0  0
    0.9045    7.7147    4.7712 C   0  0  0  0  0  0  0  0  0  0  0  0
    3.1276   11.4480    3.6086 O   0  0  0  0  0  0  0  0  0  0  0  0
    0.8263    8.0595    3.5855 O   0  0  0  0  0  0  0  0  0  0  0  0
   -0.0893    7.0155    5.3747 N   0  0  0  0  0  0  0  0  0  0  0  0
    2.1219   10.3914    5.3304 N   0  0  0  0  0  0  0  0  0  0  0  0
    2.0044    8.0200    5.5357 N   0  0  0  0  0  0  0  0  0  0  0  0
  2  1  1  0
  3  2  1  0
  4  3  1  1
  5  4  1  0
  6  7  1  1
  8  7  1  0
  9  7  1  0
 10 12  2  0
 11  5  2  0
 13 10  1  0
 14  5  1  0
 15  6  1  0
 16 13  1  0
 17 16  1  0
 18 17  1  0
 19 13  1  0
 19 20  1  0
 21 22  1  1
 23 22  1  0
 24 22  1  0
 25 27  2  0
 26 20  2  0
 28  1  1  0
 29 20  1  0
 30 21  1  0
  4 28  1  0
  6 14  1  0
 10 15  1  0
 19 18  1  1
 21 29  1  0
 25 28  1  0
 25 30  1  0
M  END
>  <_TriposChargeType>  (105) 
NO_CHARGES

$$$$
DOZWUL
     RDKit          3D

 21 21  0  0  0  0  0  0  0  0999 V2000
    5.9709    7.6004   10.8912 O   0  0  0  0  0  0  0  0  0  0  0  0
    5.9883    9.2444    9.3771 O   0  0  0  0  0  0  0  0  0  0  0  0
    6.6931   11.7354   13.7265 O   0  0  0  0  0  0  0  0  0  0  0  0
    1.4889   11.3169   13.7928 O   0  0  0  0  0  0  0  0  0  0  0  0
    6.1169    8.7310   10.6102 C   0  0  0  0  0  0  0  0  0  0  0  0
    6.3852    9.7925   11.6242 C   0  0  0  0  0  0  0  0  0  0  0  0
    6.1415   11.0404   11.4584 C   0  0  0  0  0  0  0  0  0  0  0  0
    6.2129   12.1610   12.4606 C   0  0  1  0  0  0  0  0  0  0  0  0
    4.8097   12.7200   12.6680 C   0  0  0  0  0  0  0  0  0  0  0  0
    3.8359   11.8523   13.4831 C   0  0  0  0  0  0  0  0  0  0  0  0
    2.5025   11.5939   12.8091 C   0  0  1  0  0  0  0  0  0  0  0  0
    2.5755   10.4811   11.8095 C   0  0  0  0  0  0  0  0  0  0  0  0
    2.5422   10.7336   10.5043 C   0  0  0  0  0  0  0  0  0  0  0  0
    2.7453    9.7587    9.3856 C   0  0  0  0  0  0  0  0  0  0  0  0
    3.6882   10.2887    8.3104 C   0  0  0  0  0  0  0  0  0  0  0  0
    4.4438    9.2390    7.5115 C   0  0  1  0  0  0  0  0  0  0  0  0
    5.3891    8.3713    8.3582 C   0  0  1  0  0  0  0  0  0  0  0  0
    7.1018   13.2602   11.9034 C   0  0  0  0  0  0  0  0  0  0  0  0
    2.7366    9.1054   12.3798 C   0  0  0  0  0  0  0  0  0  0  0  0
    3.4914    8.3405    6.7275 C   0  0  0  0  0  0  0  0  0  0  0  0
    6.4907    7.7327    7.5563 C   0  0  0  0  0  0  0  0  0  0  0  0
  1  5  2  0
  2  5  1  0
  8  3  1  0
 11  4  1  1
  5  6  1  0
  7  6  2  0
  8  7  1  0
  9  8  1  0
 10  9  1  0
 11 10  1  0
 12 11  1  0
 13 12  2  0
 14 13  1  0
 15 14  1  0
 16 15  1  0
 17  2  1  0
  8 18  1  6
 19 12  1  0
 16 20  1  1
 17 21  1  6
 16 17  1  0
M  END
>  <_TriposChargeType>  (106) 
NO_CHARGES

$$$$
DUBQUN
     RDKit          3D

 18 20  0  0  0  0  0  0  0  0999 V2000
    3.8574    0.5102   -0.3225 N   0  0  0  0  0  0  0  0  0  0  0  0
   -2.1968    1.0257    0.5394 C   0  0  0  0  0  0  0  0  0  0  0  0
    0.9963    1.0884   -0.8000 O   0  0  0  0  0  0  0  0  0  0  0  0
    2.6724    1.4518    1.6598 C   0  0  0  0  0  0  0  0  0  0  0  0
    1.7724    0.7525    2.6854 C   0  0  0  0  0  0  0  0  0  0  0  0
   -0.1399    0.2291   -0.8744 C   0  0  0  0  0  0  0  0  0  0  0  0
   -1.3863    0.6953    2.5313 N   0  0  0  0  0  0  0  0  0  0  0  0
    4.1478   -0.4328    1.6896 O   0  0  0  0  0  0  0  0  0  0  0  0
   -0.4670    0.3153    1.6140 N   0  0  0  0  0  0  0  0  0  0  0  0
   -2.4448    1.1302    1.8755 N   0  0  0  0  0  0  0  0  0  0  0  0
    4.3693    1.4190   -2.4252 C   0  0  0  0  0  0  0  0  0  0  0  0
    3.2971    1.4361   -1.3304 C   0  0  1  0  0  0  0  0  0  0  0  0
   -0.9364    0.4993    0.3541 C   0  0  0  0  0  0  0  0  0  0  0  0
    4.8930   -0.0203   -2.3905 C   0  0  0  0  0  0  0  0  0  0  0  0
    3.6008    0.4410    0.9972 C   0  0  0  0  0  0  0  0  0  0  0  0
    0.7946   -0.2705    2.0884 C   0  0  0  0  0  0  0  0  0  0  0  0
    4.9071   -0.3591   -0.9037 C   0  0  0  0  0  0  0  0  0  0  0  0
    1.9493    0.9342   -1.8504 C   0  0  0  0  0  0  0  0  0  0  0  0
  1 12  1  0
  3  6  1  0
  5  4  1  0
  7  9  1  0
  8 15  2  0
  9 13  1  0
 10  2  1  0
 12 11  1  6
 13  2  2  0
 14 11  1  0
 15  1  1  0
 16  5  1  0
 17  1  1  0
 18  3  1  0
  4 15  1  0
  6 13  1  0
  7 10  2  0
  9 16  1  0
 12 18  1  0
 14 17  1  0
M  END
>  <_TriposChargeType>  (107) 
NO_CHARGES

$$$$
DUPKEE
     RDKit          3D

 46 50  0  0  0  0  0  0  0  0999 V2000
    0.0009    4.0065    5.7617 N   0  0  0  0  0  0  0  0  0  0  0  0
    0.6715    3.3906    4.6025 C   0  0  1  0  0  0  0  0  0  0  0  0
   -0.3123    2.4910    3.8023 C   0  0  0  0  0  0  0  0  0  0  0  0
    0.2847    1.9153    2.5623 C   0  0  0  0  0  0  0  0  0  0  0  0
    0.0863    2.4769    1.3387 C   0  0  0  0  0  0  0  0  0  0  0  0
    0.6813    1.9939    0.1870 C   0  0  0  0  0  0  0  0  0  0  0  0
    1.4924    0.9267    0.3291 C   0  0  0  0  0  0  0  0  0  0  0  0
    1.7124    0.3370    1.5033 C   0  0  0  0  0  0  0  0  0  0  0  0
    1.0989    0.8163    2.6101 C   0  0  0  0  0  0  0  0  0  0  0  0
    1.1707    4.4830    3.6991 C   0  0  0  0  0  0  0  0  0  0  0  0
    0.4143    5.4247    3.3760 O   0  0  0  0  0  0  0  0  0  0  0  0
    2.3646    4.3697    3.1396 N   0  0  0  0  0  0  0  0  0  0  0  0
    3.4594    3.4973    3.5899 C   0  0  1  0  0  0  0  0  0  0  0  0
    4.5219    3.6433    2.4740 C   0  0  0  0  0  0  0  0  0  0  0  0
    3.8520    4.3725    1.3627 C   0  0  0  0  0  0  0  0  0  0  0  0
    2.7938    5.2197    2.0238 C   0  0  0  0  0  0  0  0  0  0  0  0
    4.0061    4.0018    4.9376 C   0  0  0  0  0  0  0  0  0  0  0  0
    3.5266    4.9520    5.5389 O   0  0  0  0  0  0  0  0  0  0  0  0
    5.0558    3.2998    5.3908 N   0  0  0  0  0  0  0  0  0  0  0  0
    5.6621    3.6002    6.6876 C   0  0  2  0  0  0  0  0  0  0  0  0
    6.9311    2.7671    6.8596 C   0  0  0  0  0  0  0  0  0  0  0  0
    4.6710    3.2717    7.8035 C   0  0  0  0  0  0  0  0  0  0  0  0
    3.8871    2.3140    7.6674 O   0  0  0  0  0  0  0  0  0  0  0  0
    4.7534    3.9850    8.9148 N   0  0  0  0  0  0  0  0  0  0  0  0
    3.9575    3.6265   10.0741 C   0  0  1  0  0  0  0  0  0  0  0  0
    4.7614    2.6417   10.9551 C   0  0  0  0  0  0  0  0  0  0  0  0
    4.0288    2.2242   12.2071 C   0  0  0  0  0  0  0  0  0  0  0  0
    4.2643    2.8691   13.4127 C   0  0  0  0  0  0  0  0  0  0  0  0
    3.5775    2.5144   14.5509 C   0  0  0  0  0  0  0  0  0  0  0  0
    2.6480    1.5052   14.5285 C   0  0  0  0  0  0  0  0  0  0  0  0
    2.4092    0.8425   13.3468 C   0  0  0  0  0  0  0  0  0  0  0  0
    3.1006    1.1991   12.1846 C   0  0  0  0  0  0  0  0  0  0  0  0
    3.6583    4.8621   10.9102 C   0  0  0  0  0  0  0  0  0  0  0  0
    4.5619    5.6718   11.1540 O   0  0  0  0  0  0  0  0  0  0  0  0
    2.4417    4.9997   11.4547 N   0  0  0  0  0  0  0  0  0  0  0  0
    1.2430    4.1993   11.1540 C   0  0  1  0  0  0  0  0  0  0  0  0
    0.3497    4.4942   12.3791 C   0  0  0  0  0  0  0  0  0  0  0  0
    0.7106    5.8993   12.7770 C   0  0  0  0  0  0  0  0  0  0  0  0
    2.2018    6.0378   12.4748 C   0  0  0  0  0  0  0  0  0  0  0  0
    0.6025    4.6824    9.8527 C   0  0  0  0  0  0  0  0  0  0  0  0
    0.8135    5.7963    9.4025 O   0  0  0  0  0  0  0  0  0  0  0  0
   -0.2073    3.7912    9.2858 N   0  0  0  0  0  0  0  0  0  0  0  0
   -0.8937    4.0402    8.0278 C   0  0  2  0  0  0  0  0  0  0  0  0
   -2.3454    3.5450    8.1011 C   0  0  0  0  0  0  0  0  0  0  0  0
   -0.1649    3.3363    6.8955 C   0  0  0  0  0  0  0  0  0  0  0  0
    0.2226    2.1633    7.0332 O   0  0  0  0  0  0  0  0  0  0  0  0
  1  2  1  0
  2  3  1  6
  3  4  1  0
  4  5  2  0
  5  6  1  0
  6  7  2  0
  7  8  1  0
  8  9  2  0
  9  4  1  0
 10  2  1  0
 11 10  2  0
 12 10  1  0
 13 12  1  0
 13 14  1  6
 15 14  1  0
 16 12  1  0
 17 13  1  0
 18 17  2  0
 19 17  1  0
 20 19  1  0
 20 21  1  1
 22 20  1  0
 23 22  2  0
 24 22  1  0
 25 24  1  0
 25 26  1  1
 27 26  1  0
 28 27  2  0
 29 28  1  0
 30 29  2  0
 31 30  1  0
 32 27  1  0
 33 25  1  0
 34 33  2  0
 35 33  1  0
 36 35  1  0
 36 37  1  1
 38 37  1  0
 39 35  1  0
 40 36  1  0
 41 40  2  0
 42 40  1  0
 43 42  1  0
 43 44  1  1
 45  1  1  0
 46 45  2  0
 15 16  1  0
 31 32  2  0
 38 39  1  0
 43 45  1  0
M  END
>  <_TriposChargeType>  (108) 
NO_CHARGES

$$$$
DUVGOQ10
     RDKit          3D

 56 61  0  0  0  0  0  0  0  0999 V2000
    3.8915    3.4025    2.1938 S   0  0  0  0  0  0  0  0  0  0  0  0
    2.2157    4.1102    3.0874 S   0  0  0  0  0  0  0  0  0  0  0  0
   -0.9841    3.5359    3.1554 N   0  0  0  0  0  0  0  0  0  0  0  0
   -0.2322    3.2392    1.9413 C   0  0  1  0  0  0  0  0  0  0  0  0
    0.9912    4.1647    1.7364 C   0  0  0  0  0  0  0  0  0  0  0  0
    0.0981    1.7571    1.7919 C   0  0  0  0  0  0  0  0  0  0  0  0
    0.8318    1.4100    0.8459 O   0  0  0  0  0  0  0  0  0  0  0  0
   -0.4878    0.8847    2.6007 N   0  0  0  0  0  0  0  0  0  0  0  0
   -0.4873   -0.5253    2.3450 C   0  0  0  0  0  0  0  0  0  0  0  0
    0.5213   -1.2793    3.1862 C   0  0  0  0  0  0  0  0  0  0  0  0
    1.3583   -0.7091    3.8919 O   0  0  0  0  0  0  0  0  0  0  0  0
    0.4663   -2.6267    3.0984 N   0  0  0  0  0  0  0  0  0  0  0  0
    1.1949   -3.4801    4.0459 C   0  0  1  0  0  0  0  0  0  0  0  0
    0.7470   -4.8805    3.6977 C   0  0  0  0  0  0  0  0  0  0  0  0
   -0.1301   -4.7962    2.6269 C   0  0  0  0  0  0  0  0  0  0  0  0
   -0.4444   -3.4025    2.2402 C   0  0  0  0  0  0  0  0  0  0  0  0
    2.6968   -3.3494    4.0321 C   0  0  0  0  0  0  0  0  0  0  0  0
    3.3317   -3.7496    5.0058 O   0  0  0  0  0  0  0  0  0  0  0  0
    3.2761   -2.8731    2.9258 N   0  0  0  0  0  0  0  0  0  0  0  0
    4.7195   -2.7356    2.8318 C   0  0  1  0  0  0  0  0  0  0  0  0
    5.1910   -3.1017    1.4051 C   0  0  0  0  0  0  0  0  0  0  0  0
    4.7195   -4.4573    1.0015 C   0  0  0  0  0  0  0  0  0  0  0  0
    3.6790   -4.6056    0.1310 C   0  0  0  0  0  0  0  0  0  0  0  0
    3.1933   -5.8673   -0.2003 C   0  0  0  0  0  0  0  0  0  0  0  0
    3.7490   -6.9710    0.3282 C   0  0  0  0  0  0  0  0  0  0  0  0
    4.8358   -6.8554    1.1648 C   0  0  0  0  0  0  0  0  0  0  0  0
    5.3175   -5.6060    1.4960 C   0  0  0  0  0  0  0  0  0  0  0  0
    5.2191   -1.3474    3.1600 C   0  0  0  0  0  0  0  0  0  0  0  0
    6.4344   -1.1201    3.1153 O   0  0  0  0  0  0  0  0  0  0  0  0
    4.3083   -0.4287    3.5021 N   0  0  0  0  0  0  0  0  0  0  0  0
    4.5704    0.9922    3.4974 C   0  0  1  0  0  0  0  0  0  0  0  0
    3.7742    1.5883    2.3511 C   0  0  0  0  0  0  0  0  0  0  0  0
    4.2513    1.6550    4.8363 C   0  0  0  0  0  0  0  0  0  0  0  0
    5.1142    2.2375    5.4726 O   0  0  0  0  0  0  0  0  0  0  0  0
    2.9864    1.5556    5.2631 N   0  0  0  0  0  0  0  0  0  0  0  0
    2.5389    2.2443    6.4541 C   0  0  0  0  0  0  0  0  0  0  0  0
    1.0414    2.4131    6.3678 C   0  0  0  0  0  0  0  0  0  0  0  0
    0.4308    2.1449    5.3216 O   0  0  0  0  0  0  0  0  0  0  0  0
    0.4043    2.8595    7.4525 N   0  0  0  0  0  0  0  0  0  0  0  0
   -1.0333    3.1058    7.3878 C   0  0  1  0  0  0  0  0  0  0  0  0
   -1.3421    3.7223    8.7467 C   0  0  0  0  0  0  0  0  0  0  0  0
   -0.2418    3.1943    9.6434 C   0  0  0  0  0  0  0  0  0  0  0  0
    0.9860    3.1480    8.7544 C   0  0  0  0  0  0  0  0  0  0  0  0
   -1.3552    4.0163    6.2276 C   0  0  0  0  0  0  0  0  0  0  0  0
   -0.6780    5.0207    5.9934 O   0  0  0  0  0  0  0  0  0  0  0  0
   -2.4215    3.6788    5.4988 N   0  0  0  0  0  0  0  0  0  0  0  0
   -2.9150    4.4532    4.3695 C   0  0  1  0  0  0  0  0  0  0  0  0
   -3.2597    5.9108    4.7115 C   0  0  0  0  0  0  0  0  0  0  0  0
   -4.3349    5.9952    5.7500 C   0  0  0  0  0  0  0  0  0  0  0  0
   -5.6846    5.9938    5.3771 C   0  0  0  0  0  0  0  0  0  0  0  0
   -6.6675    5.9762    6.3339 C   0  0  0  0  0  0  0  0  0  0  0  0
   -6.3500    5.9163    7.6404 C   0  0  0  0  0  0  0  0  0  0  0  0
   -5.0395    5.9040    8.0318 C   0  0  0  0  0  0  0  0  0  0  0  0
   -4.0463    5.9653    7.0842 C   0  0  0  0  0  0  0  0  0  0  0  0
   -2.0630    4.3253    3.1323 C   0  0  0  0  0  0  0  0  0  0  0  0
   -2.4105    4.9132    2.1077 O   0  0  0  0  0  0  0  0  0  0  0  0
  1  2  1  0
  2  5  1  0
  4  3  1  1
  4  5  1  0
  6  4  1  0
  7  6  2  0
  8  6  1  0
  9  8  1  0
 10  9  1  0
 11 10  2  0
 12 10  1  0
 13 12  1  0
 13 14  1  6
 15 14  1  0
 16 12  1  0
 17 13  1  0
 18 17  2  0
 19 17  1  0
 20 19  1  0
 20 21  1  6
 22 21  1  0
 23 22  2  0
 24 23  1  0
 25 24  2  0
 26 25  1  0
 27 22  1  0
 28 20  1  0
 29 28  2  0
 30 28  1  0
 31 30  1  1
 32  1  1  0
 33 31  1  0
 34 33  2  0
 35 33  1  0
 36 35  1  0
 37 36  1  0
 38 37  2  0
 39 37  1  0
 40 39  1  0
 40 41  1  1
 42 41  1  0
 43 39  1  0
 44 40  1  0
 45 44  2  0
 46 44  1  0
 47 46  1  0
 47 48  1  1
 49 48  1  0
 50 49  2  0
 51 50  1  0
 52 51  2  0
 53 52  1  0
 54 49  1  0
 55  3  1  0
 56 55  2  0
 15 16  1  0
 26 27  2  0
 31 32  1  0
 42 43  1  0
 47 55  1  0
 53 54  2  0
M  END
>  <_TriposChargeType>  (109) 
NO_CHARGES

$$$$
DZCDON
     RDKit          3D

 12 12  0  0  0  0  0  0  0  0999 V2000
    1.4729   -0.9713    0.2661 C   0  0  0  0  0  0  0  0  0  0  0  0
    0.0475   -0.2529    2.1422 C   0  0  0  0  0  0  0  0  0  0  0  0
   -1.1008    0.7169    2.1837 C   0  0  0  0  0  0  0  0  0  0  0  0
   -2.1127    0.6010    1.0351 C   0  0  0  0  0  0  0  0  0  0  0  0
   -1.0374   -0.0843   -1.0302 C   0  0  0  0  0  0  0  0  0  0  0  0
   -0.1074    0.2468   -2.1519 C   0  0  0  0  0  0  0  0  0  0  0  0
    1.1036   -0.7049   -2.1922 C   0  0  0  0  0  0  0  0  0  0  0  0
    2.0843   -0.5579   -1.0302 C   0  0  0  0  0  0  0  0  0  0  0  0
    0.9811    0.0191    1.0412 N   0  0  0  0  0  0  0  0  0  0  0  0
   -1.5081    0.8775   -0.2661 N   0  0  0  0  0  0  0  0  0  0  0  0
    1.3764   -2.2040    0.5737 O   0  0  0  0  0  0  0  0  0  0  0  0
   -1.3367   -1.3240   -0.7910 O   0  0  0  0  0  0  0  0  0  0  0  0
  1  8  1  0
  2  3  1  0
  3  4  1  0
  5  6  1  0
  6  7  1  0
  7  8  1  0
  9  1  1  0
 10  4  1  0
 11  1  2  0
 12  5  2  0
  2  9  1  0
  5 10  1  0
M  END
>  <_TriposChargeType>  (110) 
NO_CHARGES

$$$$
FIMKAO
     RDKit          3D

 50 53  0  0  0  0  0  0  0  0999 V2000
    7.5007    5.5145   22.2662 O   0  0  0  0  0  0  0  0  0  0  0  0
    4.6868    6.9477   18.5479 O   0  0  0  0  0  0  0  0  0  0  0  0
    1.2849    8.8967   14.6551 O   0  0  0  0  0  0  0  0  0  0  0  0
   -0.9284    9.7009   13.0546 O   0  0  0  0  0  0  0  0  0  0  0  0
   -1.9233    7.4647   11.5113 O   0  0  0  0  0  0  0  0  0  0  0  0
   -2.5069    4.5369   11.9144 O   0  0  0  0  0  0  0  0  0  0  0  0
   -2.2873    2.6951   14.3508 O   0  0  0  0  0  0  0  0  0  0  0  0
   -2.6817    3.1122   17.2769 O   0  0  0  0  0  0  0  0  0  0  0  0
   -0.8102    4.0405   22.4095 O   0  0  0  0  0  0  0  0  0  0  0  0
    1.6645    4.6324   26.2133 O   0  0  0  0  0  0  0  0  0  0  0  0
    5.5357    6.1229   21.3559 N   0  0  0  0  0  0  0  0  0  0  0  0
    1.3257    5.1258   24.0384 N   0  0  0  0  0  0  0  0  0  0  0  0
    5.6083    3.3608   25.3441 C   0  0  0  0  0  0  0  0  0  0  0  0
    6.2166    3.9429   24.2417 C   0  0  0  0  0  0  0  0  0  0  0  0
    5.5228    4.8265   23.4099 C   0  0  0  0  0  0  0  0  0  0  0  0
    4.1886    5.1093   23.6728 C   0  0  0  0  0  0  0  0  0  0  0  0
    3.5538    4.5106   24.7541 C   0  0  0  0  0  0  0  0  0  0  0  0
    4.2672    3.6673   25.5824 C   0  0  0  0  0  0  0  0  0  0  0  0
    6.2684    5.5005   22.2970 C   0  0  0  0  0  0  0  0  0  0  0  0
    6.1897    6.9724   20.3787 C   0  0  0  0  0  0  0  0  0  0  0  0
    5.1924    7.7847   19.5861 C   0  0  0  0  0  0  0  0  0  0  0  0
    3.8022    7.5174   17.6562 C   0  0  0  0  0  0  0  0  0  0  0  0
    3.2319    8.7735   17.8010 C   0  0  0  0  0  0  0  0  0  0  0  0
    2.3711    9.2710   16.8160 C   0  0  0  0  0  0  0  0  0  0  0  0
    2.1055    8.5134   15.6916 C   0  0  0  0  0  0  0  0  0  0  0  0
    2.6714    7.2428   15.5619 C   0  0  0  0  0  0  0  0  0  0  0  0
    3.5159    6.7505   16.5328 C   0  0  0  0  0  0  0  0  0  0  0  0
    0.7217   10.2072   14.7052 C   0  0  0  0  0  0  0  0  0  0  0  0
    0.1939   10.5210   13.3410 C   0  0  0  0  0  0  0  0  0  0  0  0
   -1.2500    9.7180   11.6659 C   0  0  0  0  0  0  0  0  0  0  0  0
   -2.3966    8.8076   11.4023 C   0  0  0  0  0  0  0  0  0  0  0  0
   -2.5565    6.5874   10.6694 C   0  0  0  0  0  0  0  0  0  0  0  0
   -1.9269    5.2311   10.8253 C   0  0  0  0  0  0  0  0  0  0  0  0
   -2.0022    3.2163   12.0122 C   0  0  0  0  0  0  0  0  0  0  0  0
   -2.7655    2.4401   13.0424 C   0  0  0  0  0  0  0  0  0  0  0  0
   -2.9800    1.8528   15.2755 C   0  0  0  0  0  0  0  0  0  0  0  0
   -2.3599    1.8744   16.6348 C   0  0  0  0  0  0  0  0  0  0  0  0
   -2.2343    3.2730   18.5700 C   0  0  0  0  0  0  0  0  0  0  0  0
   -1.5059    2.3265   19.2731 C   0  0  0  0  0  0  0  0  0  0  0  0
   -1.0503    2.6290   20.5501 C   0  0  0  0  0  0  0  0  0  0  0  0
   -1.3162    3.8500   21.1452 C   0  0  0  0  0  0  0  0  0  0  0  0
   -2.0708    4.7852   20.4467 C   0  0  0  0  0  0  0  0  0  0  0  0
   -2.5262    4.4972   19.1680 C   0  0  0  0  0  0  0  0  0  0  0  0
   -0.8295    5.3756   22.9059 C   0  0  0  0  0  0  0  0  0  0  0  0
   -0.0890    5.4128   24.2200 C   0  0  0  0  0  0  0  0  0  0  0  0
    2.1022    4.7697   25.0731 C   0  0  0  0  0  0  0  0  0  0  0  0
    6.3410    2.4184   26.3069 C   0  0  0  0  0  0  0  0  0  0  0  0
    7.7717    2.1469   25.8874 C   0  0  0  0  0  0  0  0  0  0  0  0
    6.3351    3.0356   27.7079 C   0  0  0  0  0  0  0  0  0  0  0  0
    5.5819    1.0766   26.3683 C   0  0  0  0  0  0  0  0  0  0  0  0
  1 19  2  0
  2 21  1  0
  3 25  1  0
  4 29  1  0
  5 31  1  0
  6 33  1  0
  7 35  1  0
  8 37  1  0
  9 41  1  0
 10 46  2  0
 11 19  1  0
 12 45  1  0
 13 14  1  0
 14 15  2  0
 15 16  1  0
 16 17  2  0
 17 18  1  0
 18 13  2  0
 19 15  1  0
 20 11  1  0
 21 20  1  0
 22  2  1  0
 23 22  2  0
 24 23  1  0
 25 24  2  0
 26 25  1  0
 27 22  1  0
 28  3  1  0
 29 28  1  0
 30  4  1  0
 31 30  1  0
 32  5  1  0
 33 32  1  0
 34  6  1  0
 35 34  1  0
 36  7  1  0
 37 36  1  0
 38  8  1  0
 39 38  2  0
 40 39  1  0
 41 40  2  0
 42 41  1  0
 43 38  1  0
 44  9  1  0
 45 44  1  0
 46 12  1  0
 47 13  1  0
 48 47  1  0
 49 47  1  0
 50 47  1  0
 17 46  1  0
 26 27  2  0
 42 43  2  0
M  END
>  <_TriposChargeType>  (111) 
NO_CHARGES

$$$$
FIWZEQ
     RDKit          3D

 17 17  0  0  0  0  0  0  0  0999 V2000
    0.4930    9.7818    2.9912 C   0  0  0  0  0  0  0  0  0  0  0  0
   -0.5634    9.0403    2.2212 C   0  0  0  0  0  0  0  0  0  0  0  0
    0.0611    8.0750    1.1699 C   0  0  0  0  0  0  0  0  0  0  0  0
    1.2625    7.2401    1.6731 C   0  0  1  0  0  0  0  0  0  0  0  0
    2.5221    8.1057    1.7544 C   0  0  0  0  0  0  0  0  0  0  0  0
    3.2908    8.2003    3.0607 C   0  0  0  0  0  0  0  0  0  0  0  0
    4.3267    9.3394    3.1067 C   0  0  1  0  0  0  0  0  0  0  0  0
    3.7726   10.7023    2.7163 C   0  0  0  0  0  0  0  0  0  0  0  0
    2.4797   11.2035    3.3569 C   0  0  0  0  0  0  0  0  0  0  0  0
    1.2777   10.7599    2.5399 C   0  0  0  0  0  0  0  0  0  0  0  0
    4.9243    9.4494    4.5552 C   0  0  0  0  0  0  0  0  0  0  0  0
    5.5988    8.1568    4.9755 C   0  0  0  0  0  0  0  0  0  0  0  0
    5.9171   10.6026    4.6557 C   0  0  0  0  0  0  0  0  0  0  0  0
    0.9431    6.4193    2.9201 C   0  0  0  0  0  0  0  0  0  0  0  0
    1.1312   11.4221    1.1860 C   0  0  0  0  0  0  0  0  0  0  0  0
    2.9383    8.6567    0.7497 O   0  0  0  0  0  0  0  0  0  0  0  0
    4.3808   11.3978    1.9223 O   0  0  0  0  0  0  0  0  0  0  0  0
  1  2  1  0
  2  3  1  0
  3  4  1  0
  4  5  1  0
  5  6  1  0
  6  7  1  0
  7  8  1  0
  8  9  1  0
  9 10  1  0
 10  1  2  0
  7 11  1  1
 12 11  1  0
 13 11  1  0
  4 14  1  1
 15 10  1  0
 16  5  2  0
 17  8  2  0
M  END
>  <_TriposChargeType>  (112) 
NO_CHARGES

$$$$
FOKCUE
     RDKit          3D

 75 80  0  0  0  0  0  0  0  0999 V2000
    3.0534    5.3998    9.3821 S   0  0  0  0  0  0  0  0  0  0  0  0
    4.5480    5.5306   10.0308 N   0  0  0  0  0  0  0  0  0  0  0  0
    3.0517    6.1569    8.1680 O   0  0  0  0  0  0  0  0  0  0  0  0
    4.8315    4.6641   11.1952 C   0  0  0  0  0  0  0  0  0  0  0  0
   10.3016    5.0144   14.4298 S   0  0  0  0  0  0  0  0  0  0  0  0
    9.0967    5.3837   13.4018 N   0  0  0  0  0  0  0  0  0  0  0  0
    2.7264    4.0073    9.3452 O   0  0  0  0  0  0  0  0  0  0  0  0
    6.3044    4.4401   11.3718 C   0  0  0  0  0  0  0  0  0  0  0  0
   10.7856    6.2688   14.9313 O   0  0  0  0  0  0  0  0  0  0  0  0
    6.0814   11.2917   11.4890 S   0  0  0  0  0  0  0  0  0  0  0  0
    7.1408   10.9864   12.6932 N   0  0  0  0  0  0  0  0  0  0  0  0
    6.9262    4.6510   12.5207 C   0  0  0  0  0  0  0  0  0  0  0  0
   12.5569    9.3881   10.8508 S   0  0  0  0  0  0  0  0  0  0  0  0
   11.3506   10.0119    9.9813 N   0  0  0  0  0  0  0  0  0  0  0  0
    9.8002    4.0240   15.3415 O   0  0  0  0  0  0  0  0  0  0  0  0
    8.3539    4.2689   12.7809 C   0  0  0  0  0  0  0  0  0  0  0  0
    6.5157   12.4945   10.8458 O   0  0  0  0  0  0  0  0  0  0  0  0
    5.4521   10.4678    5.7069 S   0  0  0  0  0  0  0  0  0  0  0  0
    6.6542    9.6668    6.4768 N   0  0  0  0  0  0  0  0  0  0  0  0
    9.2672    6.6090   12.5798 C   0  0  0  0  0  0  0  0  0  0  0  0
    5.8651   10.1075   10.7153 O   0  0  0  0  0  0  0  0  0  0  0  0
    8.6116    7.7793   13.2430 C   0  0  0  0  0  0  0  0  0  0  0  0
   13.2190   10.4884   11.5000 O   0  0  0  0  0  0  0  0  0  0  0  0
    7.6840    8.5322   12.6777 C   0  0  0  0  0  0  0  0  0  0  0  0
   12.0814    8.3072   11.6602 O   0  0  0  0  0  0  0  0  0  0  0  0
    7.0139    9.6848   13.3736 C   0  0  0  0  0  0  0  0  0  0  0  0
    6.0275   11.6969    5.2428 O   0  0  0  0  0  0  0  0  0  0  0  0
    8.4347   11.6937   12.7465 C   0  0  0  0  0  0  0  0  0  0  0  0
    4.8735    9.5456    4.7749 O   0  0  0  0  0  0  0  0  0  0  0  0
    9.4786   11.1856   11.7986 C   0  0  0  0  0  0  0  0  0  0  0  0
   10.0753   11.9327   10.8863 C   0  0  0  0  0  0  0  0  0  0  0  0
   11.1233   11.4634    9.9221 C   0  0  0  0  0  0  0  0  0  0  0  0
   10.7176    9.1411    8.9722 C   0  0  0  0  0  0  0  0  0  0  0  0
    9.2599    9.4697    8.8085 C   0  0  0  0  0  0  0  0  0  0  0  0
    8.7633    9.9747    7.6948 C   0  0  0  0  0  0  0  0  0  0  0  0
    7.3330   10.3968    7.5716 C   0  0  0  0  0  0  0  0  0  0  0  0
    6.4990    8.2168    6.7338 C   0  0  0  0  0  0  0  0  0  0  0  0
    5.6491    7.9140    7.9279 C   0  0  0  0  0  0  0  0  0  0  0  0
    6.0142    7.2191    8.9789 C   0  0  0  0  0  0  0  0  0  0  0  0
    5.0862    6.9211   10.1118 C   0  0  0  0  0  0  0  0  0  0  0  0
    1.9303    6.1801   10.4962 C   0  0  0  0  0  0  0  0  0  0  0  0
    1.3941    5.4563   11.5533 C   0  0  0  0  0  0  0  0  0  0  0  0
    0.5402    6.0781   12.4432 C   0  0  0  0  0  0  0  0  0  0  0  0
    0.2001    7.4156   12.3059 C   0  0  0  0  0  0  0  0  0  0  0  0
    0.7543    8.1278   11.2456 C   0  0  0  0  0  0  0  0  0  0  0  0
    1.6121    7.5275   10.3461 C   0  0  0  0  0  0  0  0  0  0  0  0
   -0.7515    8.0889   13.2698 C   0  0  0  0  0  0  0  0  0  0  0  0
   11.6084    4.2716   13.5099 C   0  0  0  0  0  0  0  0  0  0  0  0
   11.6169    2.8958   13.3229 C   0  0  0  0  0  0  0  0  0  0  0  0
   12.6441    2.3057   12.6107 C   0  0  0  0  0  0  0  0  0  0  0  0
   13.6631    3.0718   12.0685 C   0  0  0  0  0  0  0  0  0  0  0  0
   13.6308    4.4594   12.2494 C   0  0  0  0  0  0  0  0  0  0  0  0
   12.6158    5.0646   12.9653 C   0  0  0  0  0  0  0  0  0  0  0  0
   14.7982    2.4212   11.3237 C   0  0  0  0  0  0  0  0  0  0  0  0
    4.5679   11.6218   12.3386 C   0  0  0  0  0  0  0  0  0  0  0  0
    4.3221   12.9062   12.8100 C   0  0  0  0  0  0  0  0  0  0  0  0
    3.1199   13.1799   13.4438 C   0  0  0  0  0  0  0  0  0  0  0  0
    2.1673   12.1780   13.6326 C   0  0  0  0  0  0  0  0  0  0  0  0
    2.4461   10.9051   13.1789 C   0  0  0  0  0  0  0  0  0  0  0  0
    3.6328   10.6100   12.5213 C   0  0  0  0  0  0  0  0  0  0  0  0
    0.8491   12.4969   14.2920 C   0  0  0  0  0  0  0  0  0  0  0  0
   13.6524    8.6934    9.6619 C   0  0  0  0  0  0  0  0  0  0  0  0
   14.0735    7.3867    9.7855 C   0  0  0  0  0  0  0  0  0  0  0  0
   15.0083    6.8973    8.8895 C   0  0  0  0  0  0  0  0  0  0  0  0
   15.5070    7.6771    7.8670 C   0  0  0  0  0  0  0  0  0  0  0  0
   15.0206    8.9623    7.7205 C   0  0  0  0  0  0  0  0  0  0  0  0
   14.0958    9.4782    8.6130 C   0  0  0  0  0  0  0  0  0  0  0  0
   16.5655    7.1561    6.9317 C   0  0  0  0  0  0  0  0  0  0  0  0
    4.2182   10.9229    6.8888 C   0  0  0  0  0  0  0  0  0  0  0  0
    3.0526   10.1858    7.0220 C   0  0  0  0  0  0  0  0  0  0  0  0
    2.1316   10.5588    7.9888 C   0  0  0  0  0  0  0  0  0  0  0  0
    2.3490   11.6409    8.8228 C   0  0  0  0  0  0  0  0  0  0  0  0
    3.5262   12.3650    8.6718 C   0  0  0  0  0  0  0  0  0  0  0  0
    4.4523   12.0175    7.7076 C   0  0  0  0  0  0  0  0  0  0  0  0
    1.3578   12.0671    9.8732 C   0  0  0  0  0  0  0  0  0  0  0  0
  1  2  1  0
  2  4  1  0
  3  1  2  0
  5  6  1  0
  6 16  1  0
  7  1  2  0
  8  4  1  0
  9  5  2  0
 10 11  1  0
 11 26  1  0
 12  8  2  0
 13 14  1  0
 14 32  1  0
 15  5  2  0
 16 12  1  0
 17 10  2  0
 18 19  1  0
 19 36  1  0
 20  6  1  0
 21 10  2  0
 22 20  1  0
 23 13  2  0
 24 22  2  0
 25 13  2  0
 26 24  1  0
 27 18  2  0
 28 11  1  0
 29 18  2  0
 30 28  1  0
 31 30  2  0
 32 31  1  0
 33 14  1  0
 34 33  1  0
 35 34  2  0
 36 35  1  0
 37 19  1  0
 38 37  1  0
 39 38  2  0
 40  2  1  0
 41  1  1  0
 42 41  2  0
 43 42  1  0
 44 43  2  0
 45 44  1  0
 46 41  1  0
 47 44  1  0
 48  5  1  0
 49 48  2  0
 50 49  1  0
 51 50  2  0
 52 51  1  0
 53 48  1  0
 54 51  1  0
 55 10  1  0
 56 55  2  0
 57 56  1  0
 58 57  2  0
 59 58  1  0
 60 55  1  0
 61 58  1  0
 62 13  1  0
 63 62  2  0
 64 63  1  0
 65 64  2  0
 66 65  1  0
 67 62  1  0
 68 65  1  0
 69 18  1  0
 70 69  2  0
 71 70  1  0
 72 71  2  0
 73 72  1  0
 74 69  1  0
 75 72  1  0
 39 40  1  0
 45 46  2  0
 52 53  2  0
 59 60  2  0
 66 67  2  0
 73 74  2  0
M  END
>  <_TriposChargeType>  (113) 
NO_CHARGES

$$$$
GLSARM
     RDKit          3D

 19 19  0  0  0  0  0  0  0  0999 V2000
   -1.2803    4.3951   -2.1398 C   0  0  0  0  0  0  0  0  0  0  0  0
   -1.2306    3.2401   -1.1444 C   0  0  0  0  0  0  0  0  0  0  0  0
   -5.6771    1.6966    0.9888 C   0  0  0  0  0  0  0  0  0  0  0  0
   -3.1357    1.1570   -3.4227 C   0  0  0  0  0  0  0  0  0  0  0  0
    0.3833    3.9248   -3.9304 C   0  0  0  0  0  0  0  0  0  0  0  0
   -1.9400    2.5459    1.1055 C   0  0  0  0  0  0  0  0  0  0  0  0
   -3.3905    2.3387    1.5296 C   0  0  0  0  0  0  0  0  0  0  0  0
   -3.9295    1.5357   -0.7449 C   0  0  0  0  0  0  0  0  0  0  0  0
   -4.0621    2.7007   -1.7213 C   0  0  0  0  0  0  0  0  0  0  0  0
   -3.4282    3.5840   -3.9076 C   0  0  0  0  0  0  0  0  0  0  0  0
   -1.9781    3.6810   -4.3916 C   0  0  0  0  0  0  0  0  0  0  0  0
   -1.7836    3.5232    0.0408 N   0  0  0  0  0  0  0  0  0  0  0  0
   -1.0161    3.9936   -3.5091 N   0  0  0  0  0  0  0  0  0  0  0  0
   -4.2776    1.8820    0.6149 N   0  0  0  0  0  0  0  0  0  0  0  0
   -3.5721    2.4836   -2.9549 N   0  0  0  0  0  0  0  0  0  0  0  0
   -3.7164    2.5723    2.6883 O   0  0  0  0  0  0  0  0  0  0  0  0
   -4.5300    3.7838   -1.3750 O   0  0  0  0  0  0  0  0  0  0  0  0
   -1.7129    3.4511   -5.5720 O   0  0  0  0  0  0  0  0  0  0  0  0
   -0.7408    2.1488   -1.4196 O   0  0  0  0  0  0  0  0  0  0  0  0
  1  2  1  0
  2 12  1  0
  6  7  1  0
  7 14  1  0
  8  9  1  0
  9 15  1  0
 10 11  1  0
 11 13  1  0
 12  6  1  0
 13  1  1  0
 14  3  1  0
 15  4  1  0
 16  7  2  0
 17  9  2  0
 18 11  2  0
 19  2  2  0
  5 13  1  0
  8 14  1  0
 10 15  1  0
M  END
>  <_TriposChargeType>  (114) 
NO_CHARGES

$$$$
GOBSIZ
     RDKit          3D

 20 20  0  0  0  0  0  0  0  0999 V2000
    1.5937   -0.0336    3.3698 S   0  0  0  0  0  0  0  0  0  0  0  0
    5.0408    1.8717    1.3171 S   0  0  0  0  0  0  0  0  0  0  0  0
    2.3497    7.4752    2.6235 O   0  0  0  0  0  0  0  0  0  0  0  0
    1.1558    6.8689    5.1495 O   0  0  0  0  0  0  0  0  0  0  0  0
    5.6497    6.7832    1.6492 O   0  0  0  0  0  0  0  0  0  0  0  0
    1.8196    4.4757    3.9194 O   0  0  0  0  0  0  0  0  0  0  0  0
    4.1365    5.5705    2.7906 N   0  0  0  0  0  0  0  0  0  0  0  0
   -0.0261    3.4858    4.6996 N   0  0  0  0  0  0  0  0  0  0  0  0
    2.6087    0.7670    2.1002 C   0  0  0  0  0  0  0  0  0  0  0  0
    4.0249    1.0263    2.5569 C   0  0  0  0  0  0  0  0  0  0  0  0
    4.4046    3.5587    1.4407 C   0  0  0  0  0  0  0  0  0  0  0  0
    4.8239    4.3000    2.6815 C   0  0  0  0  0  0  0  0  0  0  0  0
    4.5633    6.6803    2.2218 C   0  0  0  0  0  0  0  0  0  0  0  0
    3.6644    7.8823    2.3512 C   0  0  0  0  0  0  0  0  0  0  0  0
    1.5414    8.3665    3.3680 C   0  0  0  0  0  0  0  0  0  0  0  0
    0.5140    7.5480    4.0874 C   0  0  0  0  0  0  0  0  0  0  0  0
    0.5260    5.6733    5.5551 C   0  0  0  0  0  0  0  0  0  0  0  0
    0.8301    4.4993    4.6445 C   0  0  0  0  0  0  0  0  0  0  0  0
    0.1572    2.2882    3.8894 C   0  0  0  0  0  0  0  0  0  0  0  0
    1.2168    1.3712    4.4447 C   0  0  0  0  0  0  0  0  0  0  0  0
  1  9  1  0
  2 10  1  0
  3 14  1  0
  4 16  1  0
  5 13  2  0
  6 18  2  0
  7 12  1  0
  8 18  1  0
  9 10  1  0
 11  2  1  0
 12 11  1  0
 13  7  1  0
 14 13  1  0
 15  3  1  0
 16 15  1  0
 17  4  1  0
 18 17  1  0
 19  8  1  0
 20  1  1  0
 19 20  1  0
M  END
>  <_TriposChargeType>  (115) 
NO_CHARGES

$$$$
GOKREE
     RDKit          3D

 19 20  0  0  0  0  0  0  0  0999 V2000
    2.9053    2.7347    8.1374 S   0  0  0  0  0  0  0  0  0  0  0  0
    2.3499    4.7542   10.1481 O   0  0  0  0  0  0  0  0  0  0  0  0
   -0.6313    5.4997    6.7766 O   0  0  0  0  0  0  0  0  0  0  0  0
    0.3891    5.5006    9.2840 N   0  0  0  0  0  0  0  0  0  0  0  0
    0.7590    5.7675    5.0065 N   0  0  0  0  0  0  0  0  0  0  0  0
    1.7726    4.0196    7.9882 C   0  0  0  0  0  0  0  0  0  0  0  0
    1.3556    4.1629    6.6748 C   0  0  0  0  0  0  0  0  0  0  0  0
    1.9763    3.1784    5.7976 C   0  0  0  0  0  0  0  0  0  0  0  0
    2.8201    2.3598    6.4843 C   0  0  0  0  0  0  0  0  0  0  0  0
    1.5208    4.8047    9.2301 C   0  0  0  0  0  0  0  0  0  0  0  0
    0.4089    5.2024    6.1640 C   0  0  0  0  0  0  0  0  0  0  0  0
    0.0734    6.4613   10.3401 C   0  0  0  0  0  0  0  0  0  0  0  0
   -0.2689    7.8078    9.7135 C   0  0  0  0  0  0  0  0  0  0  0  0
    0.9199    8.5225    9.0791 C   0  0  0  0  0  0  0  0  0  0  0  0
    0.4937    9.6208    8.0998 C   0  0  0  0  0  0  0  0  0  0  0  0
    0.0450    9.0979    6.7318 C   0  0  0  0  0  0  0  0  0  0  0  0
    1.2182    8.6189    5.8777 C   0  0  0  0  0  0  0  0  0  0  0  0
    0.8265    8.1709    4.4677 C   0  0  0  0  0  0  0  0  0  0  0  0
    0.0187    6.8769    4.4123 C   0  0  0  0  0  0  0  0  0  0  0  0
  1  6  1  0
  2 10  2  0
  3 11  2  0
  6  7  2  0
  7  8  1  0
  9  1  1  0
 10  4  1  0
 11  5  1  0
 12  4  1  0
 13 12  1  0
 14 13  1  0
 15 14  1  0
 16 15  1  0
 17 16  1  0
 18 17  1  0
 19  5  1  0
  6 10  1  0
  7 11  1  0
  8  9  2  0
 18 19  1  0
M  END
>  <_TriposChargeType>  (116) 
NO_CHARGES

$$$$
GUGWOV
     RDKit          3D

 37 38  0  0  0  0  0  0  0  0999 V2000
    4.3463    1.8239    0.1931 C   0  0  2  0  0  0  0  0  0  0  0  0
    4.9855    3.1965   -0.0229 C   0  0  0  0  0  0  0  0  0  0  0  0
    4.6582    5.6057   -0.2005 C   0  0  2  0  0  0  0  0  0  0  0  0
    3.9068    6.5835    0.6829 C   0  0  0  0  0  0  0  0  0  0  0  0
    4.0412    8.4185    2.2643 C   0  0  2  0  0  0  0  0  0  0  0  0
    4.4212    9.7788    1.6879 C   0  0  0  0  0  0  0  0  0  0  0  0
    4.3675    8.4348    3.7624 C   0  0  0  0  0  0  0  0  0  0  0  0
    4.0258    7.1736    4.4839 C   0  0  0  0  0  0  0  0  0  0  0  0
    4.6103    6.8152    5.6184 C   0  0  0  0  0  0  0  0  0  0  0  0
    4.3003    5.6150    6.4461 C   0  0  0  0  0  0  0  0  0  0  0  0
    3.7907    3.9533    4.7885 C   0  0  0  0  0  0  0  0  0  0  0  0
    2.7917    3.2650    4.1123 C   0  0  0  0  0  0  0  0  0  0  0  0
    3.1170    2.4084    3.0773 C   0  0  0  0  0  0  0  0  0  0  0  0
    4.4337    2.2088    2.6972 C   0  0  0  0  0  0  0  0  0  0  0  0
    5.4154    2.9338    3.3599 C   0  0  0  0  0  0  0  0  0  0  0  0
    5.1054    3.8054    4.3925 C   0  0  0  0  0  0  0  0  0  0  0  0
    4.7753    1.2714    1.5630 C   0  0  0  0  0  0  0  0  0  0  0  0
    4.3934    5.9388   -1.6795 C   0  0  0  0  0  0  0  0  0  0  0  0
    4.7187    7.3582   -2.1333 C   0  0  0  0  0  0  0  0  0  0  0  0
    4.3108    7.5116   -3.5963 C   0  0  0  0  0  0  0  0  0  0  0  0
    6.1707    7.7261   -1.9479 C   0  0  0  0  0  0  0  0  0  0  0  0
    3.9548    0.1776   -1.5923 C   0  0  0  0  0  0  0  0  0  0  0  0
    4.0412   -1.3997   -3.4727 C   0  0  0  0  0  0  0  0  0  0  0  0
    3.2542   -2.5211   -2.8317 C   0  0  0  0  0  0  0  0  0  0  0  0
    5.2379   -1.9522   -4.2360 C   0  0  0  0  0  0  0  0  0  0  0  0
    3.1957   -0.5077   -4.3720 C   0  0  0  0  0  0  0  0  0  0  0  0
    5.7935   10.9735    0.2282 C   0  0  0  0  0  0  0  0  0  0  0  0
    4.7840    0.9468   -0.8743 N   0  0  0  0  0  0  0  0  0  0  0  0
    4.1765    4.2497    0.0646 N   0  0  0  0  0  0  0  0  0  0  0  0
    4.6390    7.3103    1.5401 N   0  0  0  0  0  0  0  0  0  0  0  0
    6.1952    3.2950   -0.2491 O   0  0  0  0  0  0  0  0  0  0  0  0
    2.6900    6.7196    0.5588 O   0  0  0  0  0  0  0  0  0  0  0  0
    3.9759   10.8039    2.1235 O   0  0  0  0  0  0  0  0  0  0  0  0
    3.3521    4.7394    5.8249 O   0  0  0  0  0  0  0  0  0  0  0  0
    2.7396    0.1654   -1.4959 O   0  0  0  0  0  0  0  0  0  0  0  0
    4.6885   -0.5855   -2.4348 O   0  0  0  0  0  0  0  0  0  0  0  0
    5.3070    9.7096    0.7127 O   0  0  0  0  0  0  0  0  0  0  0  0
  2  1  1  0
  3  4  1  0
  4 30  1  0
  5  6  1  6
  7  5  1  0
  8  7  1  0
  9  8  2  0
 10  9  1  0
 11 12  2  0
 13 12  1  0
 14 13  2  0
 15 14  1  0
 16 11  1  0
 17  1  1  0
  3 18  1  6
 19 18  1  0
 20 19  1  0
 21 19  1  0
 22 28  1  0
 23 24  1  0
 25 23  1  0
 26 23  1  0
  1 28  1  6
 29  2  1  0
 30  5  1  0
 31  2  2  0
 32  4  2  0
 33  6  2  0
 34 10  1  0
 35 22  2  0
 36 22  1  0
 37  6  1  0
  3 29  1  0
 11 34  1  0
 14 17  1  0
 15 16  2  0
 23 36  1  0
 27 37  1  0
M  END
>  <_TriposChargeType>  (117) 
NO_CHARGES

$$$$
HEBHUR
     RDKit          3D

 32 35  0  0  0  0  0  0  0  0999 V2000
    3.1044    9.9910   11.5801 S   0  0  0  0  0  0  0  0  0  0  0  0
    3.8674    9.3199   17.6426 O   0  0  0  0  0  0  0  0  0  0  0  0
    2.3003    6.1142   17.2861 O   0  0  0  0  0  0  0  0  0  0  0  0
    0.9110    6.6842   13.1765 O   0  0  0  0  0  0  0  0  0  0  0  0
    4.1183    6.8492   12.6261 O   0  0  0  0  0  0  0  0  0  0  0  0
    2.8325    9.6511   15.6788 N   0  0  0  0  0  0  0  0  0  0  0  0
    3.3880    6.6725   15.3851 N   0  0  0  0  0  0  0  0  0  0  0  0
    2.0403    4.8724   13.8885 N   0  0  0  0  0  0  0  0  0  0  0  0
    2.6416    6.6725   10.9434 N   0  0  0  0  0  0  0  0  0  0  0  0
    3.5221   10.0795   13.3428 C   0  0  0  0  0  0  0  0  0  0  0  0
    2.4892    9.4159   14.2610 C   0  0  2  0  0  0  0  0  0  0  0  0
    1.1111   10.0584   14.1733 C   0  0  0  0  0  0  0  0  0  0  0  0
    1.2329   11.2979   15.0718 C   0  0  0  0  0  0  0  0  0  0  0  0
    2.1449   10.8484   16.2090 C   0  0  0  0  0  0  0  0  0  0  0  0
    3.6216    8.9465   16.4917 C   0  0  0  0  0  0  0  0  0  0  0  0
    4.2736    7.6380   16.0162 C   0  0  0  0  0  0  0  0  0  0  0  0
    2.4720    5.9889   16.0754 C   0  0  0  0  0  0  0  0  0  0  0  0
    1.5762    5.0315   15.2690 C   0  0  2  0  0  0  0  0  0  0  0  0
    1.6443    3.6154   15.8037 C   0  0  0  0  0  0  0  0  0  0  0  0
    2.9006    3.1016   15.1594 C   0  0  0  0  0  0  0  0  0  0  0  0
    2.8681    3.6528   13.7285 C   0  0  0  0  0  0  0  0  0  0  0  0
    1.6321    5.7162   12.9331 C   0  0  0  0  0  0  0  0  0  0  0  0
    2.0759    5.4424   11.4999 C   0  0  1  0  0  0  0  0  0  0  0  0
    3.6328    7.2893   11.5766 C   0  0  0  0  0  0  0  0  0  0  0  0
    4.1111    8.6024   10.9938 C   0  0  0  0  0  0  0  0  0  0  0  0
    0.8724    4.9765   10.6629 C   0  0  0  0  0  0  0  0  0  0  0  0
    0.2691    3.7336   11.2852 C   0  0  0  0  0  0  0  0  0  0  0  0
    0.7790    2.4766   10.9762 C   0  0  0  0  0  0  0  0  0  0  0  0
    0.3453    1.3553   11.6709 C   0  0  0  0  0  0  0  0  0  0  0  0
   -0.6043    1.4724   12.6635 C   0  0  0  0  0  0  0  0  0  0  0  0
   -1.1517    2.7235   12.9506 C   0  0  0  0  0  0  0  0  0  0  0  0
   -0.7190    3.8319   12.2516 C   0  0  0  0  0  0  0  0  0  0  0  0
  1 10  1  0
  2 15  2  0
  3 17  2  0
  4 22  2  0
  5 24  2  0
  6 11  1  0
  7 16  1  0
  8 18  1  0
  9 23  1  0
 11 10  1  6
 11 12  1  0
 12 13  1  0
 13 14  1  0
 14  6  1  0
 15  6  1  0
 16 15  1  0
 17  7  1  0
 18 17  1  0
 18 19  1  1
 20 19  1  0
 21  8  1  0
 22  8  1  0
 23 22  1  0
 24  9  1  0
 25  1  1  0
 23 26  1  6
 27 26  1  0
 28 27  2  0
 29 28  1  0
 30 29  2  0
 31 30  1  0
 32 27  1  0
 20 21  1  0
 24 25  1  0
 31 32  2  0
M  END
>  <_TriposChargeType>  (118) 
NO_CHARGES

$$$$
HEBLIJ
     RDKit          3D

 52 54  0  0  0  0  0  0  0  0999 V2000
   -9.4952   12.4870    6.7361 N   0  0  0  0  0  0  0  0  0  0  0  0
   -9.6154   12.7448    9.2249 C   0  0  0  0  0  0  0  0  0  0  0  0
   -9.9788   13.2421   10.2551 O   0  0  0  0  0  0  0  0  0  0  0  0
  -10.0485   13.2471    7.8506 C   0  0  1  0  0  0  0  0  0  0  0  0
   -9.8195   14.7442    7.7030 C   0  0  0  0  0  0  0  0  0  0  0  0
   -8.3284   15.0730    7.7163 C   0  0  0  0  0  0  0  0  0  0  0  0
  -10.4902   15.2845    6.4530 C   0  0  0  0  0  0  0  0  0  0  0  0
   -8.8102   11.6641    9.1816 O   0  0  0  0  0  0  0  0  0  0  0  0
   -7.2084   10.3439   10.4583 C   0  0  0  0  0  0  0  0  0  0  0  0
   -6.6589   10.1125   11.5506 O   0  0  0  0  0  0  0  0  0  0  0  0
   -8.5030   11.0627   10.5093 C   0  0  2  0  0  0  0  0  0  0  0  0
   -9.6096   10.1770   10.9123 C   0  0  0  0  0  0  0  0  0  0  0  0
   -6.7085    9.9275    9.2949 N   0  0  0  0  0  0  0  0  0  0  0  0
   -4.3121   10.0663    9.0606 C   0  0  0  0  0  0  0  0  0  0  0  0
   -4.2940   10.8710    8.1259 O   0  0  0  0  0  0  0  0  0  0  0  0
   -5.5046    9.1145    9.2272 C   0  0  2  0  0  0  0  0  0  0  0  0
   -5.5532    8.1247    8.0571 C   0  0  0  0  0  0  0  0  0  0  0  0
   -4.2453    7.3927    7.9228 C   0  0  0  0  0  0  0  0  0  0  0  0
   -6.6828    7.1201    8.2802 C   0  0  0  0  0  0  0  0  0  0  0  0
   -3.2980   10.0084    9.9587 N   0  0  0  0  0  0  0  0  0  0  0  0
   -2.1723   12.2392   10.2074 C   0  0  0  0  0  0  0  0  0  0  0  0
   -1.2736   12.7877   10.8490 O   0  0  0  0  0  0  0  0  0  0  0  0
   -2.0587   10.7768    9.7400 C   0  0  1  0  0  0  0  0  0  0  0  0
   -1.0437   10.0266   10.6126 C   0  0  0  0  0  0  0  0  0  0  0  0
   -1.8641    9.5706   11.7693 C   0  0  0  0  0  0  0  0  0  0  0  0
   -3.2073    9.1310   11.1376 C   0  0  0  0  0  0  0  0  0  0  0  0
   -3.3056   12.8538    9.8899 N   0  0  0  0  0  0  0  0  0  0  0  0
   -4.0125   14.9970    8.9130 C   0  0  0  0  0  0  0  0  0  0  0  0
   -4.1299   16.1850    8.8841 O   0  0  0  0  0  0  0  0  0  0  0  0
   -3.6185   14.2286   10.1607 C   0  0  1  0  0  0  0  0  0  0  0  0
   -4.6298   14.4302   11.2897 C   0  0  0  0  0  0  0  0  0  0  0  0
   -5.9520   13.8387   10.9522 C   0  0  0  0  0  0  0  0  0  0  0  0
   -4.0974   13.8948   12.6207 C   0  0  0  0  0  0  0  0  0  0  0  0
   -4.2367   14.2088    7.8384 O   0  0  0  0  0  0  0  0  0  0  0  0
   -5.3176   13.9064    5.6737 C   0  0  0  0  0  0  0  0  0  0  0  0
   -5.8843   14.3592    4.6535 O   0  0  0  0  0  0  0  0  0  0  0  0
   -4.6374   14.8830    6.5929 C   0  0  2  0  0  0  0  0  0  0  0  0
   -3.4392   15.5042    5.9068 C   0  0  0  0  0  0  0  0  0  0  0  0
   -5.2012   12.6010    5.9013 N   0  0  0  0  0  0  0  0  0  0  0  0
   -7.0415   11.1155    5.3795 C   0  0  0  0  0  0  0  0  0  0  0  0
   -7.1827   10.4909    6.4275 O   0  0  0  0  0  0  0  0  0  0  0  0
   -5.6658   11.5980    4.9311 C   0  0  2  0  0  0  0  0  0  0  0  0
   -4.6984   10.4149    4.8167 C   0  0  0  0  0  0  0  0  0  0  0  0
   -5.2203    9.4020    3.8565 C   0  0  0  0  0  0  0  0  0  0  0  0
   -3.3161   10.9090    4.4371 C   0  0  0  0  0  0  0  0  0  0  0  0
   -8.1138   11.3931    4.5958 N   0  0  0  0  0  0  0  0  0  0  0  0
  -10.1382   11.5584    6.0800 C   0  0  0  0  0  0  0  0  0  0  0  0
  -11.2849   11.2345    6.3631 O   0  0  0  0  0  0  0  0  0  0  0  0
   -9.4379   10.8313    4.9300 C   0  0  1  0  0  0  0  0  0  0  0  0
  -10.2030   11.0065    3.6089 C   0  0  0  0  0  0  0  0  0  0  0  0
   -9.6049   12.2573    3.0195 C   0  0  0  0  0  0  0  0  0  0  0  0
   -8.1548   12.1119    3.2892 C   0  0  0  0  0  0  0  0  0  0  0  0
  1  4  1  0
  2  3  2  0
  4  2  1  0
  4  5  1  6
  6  5  1  0
  7  5  1  0
  8  2  1  0
  9 10  2  0
 11  8  1  0
 11 12  1  6
 13  9  1  0
 14 15  2  0
 16 13  1  0
 16 17  1  6
 18 17  1  0
 19 17  1  0
 20 14  1  0
 21 22  2  0
 23 20  1  0
 23 24  1  1
 25 24  1  0
 26 20  1  0
 27 21  1  0
 28 29  2  0
 30 27  1  0
 30 31  1  1
 32 31  1  0
 33 31  1  0
 34 28  1  0
 35 36  2  0
 37 34  1  0
 37 38  1  6
 39 35  1  0
 40 41  2  0
 42 39  1  0
 42 43  1  1
 44 43  1  0
 45 43  1  0
 46 40  1  0
 47  1  1  0
 48 47  2  0
 49 46  1  0
 49 50  1  6
 51 50  1  0
 52 46  1  0
  9 11  1  0
 14 16  1  0
 21 23  1  0
 25 26  1  0
 28 30  1  0
 35 37  1  0
 40 42  1  0
 47 49  1  0
 51 52  1  0
M  END
>  <_TriposChargeType>  (119) 
NO_CHARGES

$$$$
HEGNEO
     RDKit          3D

 29 30  0  0  0  0  0  0  0  0999 V2000
    2.7033    4.4470   11.1973 O   0  0  0  0  0  0  0  0  0  0  0  0
    1.7352    5.3611    7.6444 O   0  0  0  0  0  0  0  0  0  0  0  0
    2.1470    0.8906    6.9053 O   0  0  0  0  0  0  0  0  0  0  0  0
   -1.7071    3.3295    9.4427 O   0  0  0  0  0  0  0  0  0  0  0  0
    1.3359    6.1900   10.7635 N   0  0  0  0  0  0  0  0  0  0  0  0
    3.6275    6.2642    8.4582 N   0  0  0  0  0  0  0  0  0  0  0  0
    4.9739    4.4580    6.4856 N   0  0  0  0  0  0  0  0  0  0  0  0
    4.3472    2.3597    6.1209 N   0  0  0  0  0  0  0  0  0  0  0  0
    1.0497    2.7739    7.5031 N   0  0  0  0  0  0  0  0  0  0  0  0
    0.4014    3.0235   10.1887 N   0  0  0  0  0  0  0  0  0  0  0  0
    0.3774    3.9414   11.3145 C   0  0  2  0  0  0  0  0  0  0  0  0
    1.5546    4.8925   11.0992 C   0  0  0  0  0  0  0  0  0  0  0  0
    2.4751    7.0732   10.5416 C   0  0  0  0  0  0  0  0  0  0  0  0
    2.8449    7.3489    9.0772 C   0  0  0  0  0  0  0  0  0  0  0  0
    2.9808    5.3240    7.7483 C   0  0  0  0  0  0  0  0  0  0  0  0
    3.7348    4.2488    7.0625 C   0  0  0  0  0  0  0  0  0  0  0  0
    5.2937    3.3050    5.9333 C   0  0  0  0  0  0  0  0  0  0  0  0
    3.3211    2.9442    6.8184 C   0  0  0  0  0  0  0  0  0  0  0  0
    2.1205    2.1143    7.0905 C   0  0  0  0  0  0  0  0  0  0  0  0
   -0.1490    2.1619    8.0144 C   0  0  0  0  0  0  0  0  0  0  0  0
   -0.5793    2.8908    9.2919 C   0  0  0  0  0  0  0  0  0  0  0  0
    0.5215    3.2256   12.6498 C   0  0  0  0  0  0  0  0  0  0  0  0
    0.3483    4.1334   13.8681 C   0  0  0  0  0  0  0  0  0  0  0  0
    0.9095    3.4839   15.1185 C   0  0  0  0  0  0  0  0  0  0  0  0
   -1.1163    4.5086   14.0862 C   0  0  0  0  0  0  0  0  0  0  0  0
   -0.1036    6.9044   10.8459 C   0  0  0  0  0  0  0  0  0  0  0  0
   -0.8124    6.7095    9.5656 C   0  0  0  0  0  0  0  0  0  0  0  0
    5.0621    6.2708    8.7744 C   0  0  0  0  0  0  0  0  0  0  0  0
    5.8185    7.3489    8.0176 C   0  0  0  0  0  0  0  0  0  0  0  0
  1 12  2  0
  2 15  2  0
  3 19  2  0
  4 21  2  0
  5 12  1  0
  6 14  1  0
  7 16  1  0
 11 10  1  0
 12 11  1  0
 13  5  1  0
 14 13  1  0
 15  6  1  0
 16 15  1  0
 17  7  2  0
 18  8  1  0
 19  9  1  0
 20  9  1  0
 21 10  1  0
 11 22  1  1
 23 22  1  0
 24 23  1  0
 25 23  1  0
 26  5  1  0
 27 26  1  0
 28  6  1  0
 29 28  1  0
  8 17  1  0
 16 18  2  0
 18 19  1  0
 20 21  1  0
M  END
>  <_TriposChargeType>  (120) 
NO_CHARGES

$$$$
HEGNOY
     RDKit          3D

 26 27  0  0  0  0  0  0  0  0999 V2000
    2.4016    7.6456   17.8847 O   0  0  0  0  0  0  0  0  0  0  0  0
   -0.2937    8.7417   20.4037 O   0  0  0  0  0  0  0  0  0  0  0  0
    0.5679    4.5254   19.0187 O   0  0  0  0  0  0  0  0  0  0  0  0
    4.2801    6.4802   21.9785 O   0  0  0  0  0  0  0  0  0  0  0  0
    5.2331    8.8809   20.8899 N   0  0  0  0  0  0  0  0  0  0  0  0
    4.4498   10.1442   19.2514 N   0  0  0  0  0  0  0  0  0  0  0  0
    1.7010    9.7811   18.1997 N   0  0  0  0  0  0  0  0  0  0  0  0
   -0.8953    8.0200   18.3527 N   0  0  0  0  0  0  0  0  0  0  0  0
    0.2344    5.8891   20.7970 N   0  0  0  0  0  0  0  0  0  0  0  0
    3.0806    6.0924   20.0904 N   0  0  0  0  0  0  0  0  0  0  0  0
    5.3581   10.0211   20.1967 C   0  0  0  0  0  0  0  0  0  0  0  0
    3.7010    8.9943   19.3408 C   0  0  0  0  0  0  0  0  0  0  0  0
    2.5429    8.7641   18.4245 C   0  0  0  0  0  0  0  0  0  0  0  0
    1.6657   11.0096   18.9957 C   0  0  0  0  0  0  0  0  0  0  0  0
    2.2602   12.2124   18.2909 C   0  0  0  0  0  0  0  0  0  0  0  0
    0.6351    9.6546   17.1905 C   0  0  0  0  0  0  0  0  0  0  0  0
   -0.7419    9.3660   17.7989 C   0  0  0  0  0  0  0  0  0  0  0  0
   -1.2658    6.9598   17.4024 C   0  0  0  0  0  0  0  0  0  0  0  0
   -2.7695    6.7635   17.3039 C   0  0  0  0  0  0  0  0  0  0  0  0
   -0.6937    7.8420   19.6654 C   0  0  0  0  0  0  0  0  0  0  0  0
   -0.9987    6.4689   20.2903 C   0  0  0  0  0  0  0  0  0  0  0  0
    0.9686    5.0456   20.0577 C   0  0  0  0  0  0  0  0  0  0  0  0
    2.4050    4.8749   20.5470 C   0  0  1  0  0  0  0  0  0  0  0  0
    3.0547    3.6186   20.0078 C   0  0  0  0  0  0  0  0  0  0  0  0
    3.8458    6.8502   20.8757 C   0  0  0  0  0  0  0  0  0  0  0  0
    4.1879    8.1834   20.3395 C   0  0  0  0  0  0  0  0  0  0  0  0
  1 13  2  0
  2 20  2  0
  3 22  2  0
  4 25  2  0
  5 11  1  0
  6 11  2  0
  7 13  1  0
  8 17  1  0
  9 21  1  0
 10 23  1  0
 12  6  1  0
 13 12  1  0
 14  7  1  0
 15 14  1  0
 16  7  1  0
 17 16  1  0
 18  8  1  0
 19 18  1  0
 20  8  1  0
 21 20  1  0
 22  9  1  0
 23 22  1  0
 23 24  1  6
 25 10  1  0
 26  5  1  0
 12 26  2  0
 25 26  1  0
M  END
>  <_TriposChargeType>  (121) 
NO_CHARGES

$$$$
HETJIA
     RDKit          3D

 51 57  0  0  0  0  0  0  0  0999 V2000
   -0.9423    7.4080    3.3382 C   0  0  0  0  0  0  0  0  0  0  0  0
   -2.2833    7.5467    3.7190 C   0  0  0  0  0  0  0  0  0  0  0  0
   -2.5818    7.5005    5.0570 C   0  0  0  0  0  0  0  0  0  0  0  0
   -1.5658    7.3426    5.9713 C   0  0  0  0  0  0  0  0  0  0  0  0
   -0.2439    7.2276    5.5256 C   0  0  0  0  0  0  0  0  0  0  0  0
    0.0526    7.2558    4.2149 N   0  0  0  0  0  0  0  0  0  0  0  0
    0.8900    7.0945    6.4672 C   0  0  0  0  0  0  0  0  0  0  0  0
    0.7348    6.5701    7.7570 C   0  0  0  0  0  0  0  0  0  0  0  0
    1.7995    6.4517    8.6149 C   0  0  0  0  0  0  0  0  0  0  0  0
    3.0626    6.8644    8.2100 C   0  0  0  0  0  0  0  0  0  0  0  0
    3.2453    7.3697    6.9348 C   0  0  0  0  0  0  0  0  0  0  0  0
    2.1730    7.4881    6.0738 C   0  0  0  0  0  0  0  0  0  0  0  0
    4.1722    6.8633    9.0438 O   0  0  0  0  0  0  0  0  0  0  0  0
    4.4668    5.6882    9.8221 C   0  0  0  0  0  0  0  0  0  0  0  0
    5.4293    4.7917    9.0982 C   0  0  0  0  0  0  0  0  0  0  0  0
    4.8559    4.0767    7.8868 C   0  0  0  0  0  0  0  0  0  0  0  0
    3.8966    3.1373    8.3858 O   0  0  0  0  0  0  0  0  0  0  0  0
    3.2091    2.3716    7.4861 C   0  0  0  0  0  0  0  0  0  0  0  0
    3.3953    2.4122    6.1073 C   0  0  0  0  0  0  0  0  0  0  0  0
    2.6556    1.5619    5.2965 C   0  0  0  0  0  0  0  0  0  0  0  0
    1.7183    0.6823    5.8280 C   0  0  0  0  0  0  0  0  0  0  0  0
    1.5399    0.6687    7.2110 C   0  0  0  0  0  0  0  0  0  0  0  0
    2.2791    1.4954    8.0280 C   0  0  0  0  0  0  0  0  0  0  0  0
    0.7976   -0.4765    4.8443 S   0  0  0  0  0  0  0  0  0  0  0  0
   -0.0726    0.6045    3.6750 C   0  0  0  0  0  0  0  0  0  0  0  0
   -0.7509   -0.2481    2.6153 C   0  0  0  0  0  0  0  0  0  0  0  0
   -0.5594    7.4080    1.8924 C   0  0  0  0  0  0  0  0  0  0  0  0
    0.7816    7.5467    1.5117 C   0  0  0  0  0  0  0  0  0  0  0  0
    1.0800    7.5005    0.1737 C   0  0  0  0  0  0  0  0  0  0  0  0
    0.0641    7.3426   -0.7407 C   0  0  0  0  0  0  0  0  0  0  0  0
   -1.2579    7.2276   -0.2950 C   0  0  0  0  0  0  0  0  0  0  0  0
   -1.5543    7.2558    1.0158 N   0  0  0  0  0  0  0  0  0  0  0  0
   -2.3918    7.0945   -1.2365 C   0  0  0  0  0  0  0  0  0  0  0  0
   -2.2366    6.5701   -2.5264 C   0  0  0  0  0  0  0  0  0  0  0  0
   -3.3012    6.4517   -3.3842 C   0  0  0  0  0  0  0  0  0  0  0  0
   -4.5644    6.8644   -2.9794 C   0  0  0  0  0  0  0  0  0  0  0  0
   -4.7470    7.3697   -1.7041 C   0  0  0  0  0  0  0  0  0  0  0  0
   -3.6747    7.4881   -0.8432 C   0  0  0  0  0  0  0  0  0  0  0  0
   -5.6739    6.8633   -3.8131 O   0  0  0  0  0  0  0  0  0  0  0  0
   -5.9685    5.6882   -4.5915 C   0  0  0  0  0  0  0  0  0  0  0  0
   -6.9310    4.7917   -3.8675 C   0  0  0  0  0  0  0  0  0  0  0  0
   -6.3576    4.0767   -2.6561 C   0  0  0  0  0  0  0  0  0  0  0  0
   -5.3983    3.1373   -3.1551 O   0  0  0  0  0  0  0  0  0  0  0  0
   -4.7109    2.3716   -2.2555 C   0  0  0  0  0  0  0  0  0  0  0  0
   -4.8971    2.4122   -0.8767 C   0  0  0  0  0  0  0  0  0  0  0  0
   -4.1573    1.5619   -0.0659 C   0  0  0  0  0  0  0  0  0  0  0  0
   -3.2200    0.6823   -0.5973 C   0  0  0  0  0  0  0  0  0  0  0  0
   -3.0417    0.6687   -1.9803 C   0  0  0  0  0  0  0  0  0  0  0  0
   -3.7808    1.4954   -2.7973 C   0  0  0  0  0  0  0  0  0  0  0  0
   -2.2993   -0.4765    0.3863 S   0  0  0  0  0  0  0  0  0  0  0  0
   -1.4292    0.6045    1.5556 C   0  0  0  0  0  0  0  0  0  0  0  0
  1  2  2  0
  2  3  1  0
  3  4  2  0
  4  5  1  0
  5  6  2  0
  6  1  1  0
  7  5  1  0
  8  7  2  0
  9  8  1  0
 10  9  2  0
 11 10  1  0
 12  7  1  0
 13 10  1  0
 14 13  1  0
 15 14  1  0
 16 15  1  0
 17 16  1  0
 18 17  1  0
 19 18  2  0
 20 19  1  0
 21 20  2  0
 22 21  1  0
 23 18  1  0
 24 21  1  0
 25 24  1  0
 26 25  1  0
 27  1  1  0
 28 27  2  0
 29 28  1  0
 30 29  2  0
 31 30  1  0
 32 27  1  0
 33 31  1  0
 34 33  2  0
 35 34  1  0
 36 35  2  0
 37 36  1  0
 38 33  1  0
 39 36  1  0
 40 39  1  0
 41 40  1  0
 42 41  1  0
 43 42  1  0
 44 43  1  0
 45 44  2  0
 46 45  1  0
 47 46  2  0
 48 47  1  0
 49 44  1  0
 50 47  1  0
 51 26  1  0
 11 12  2  0
 22 23  2  0
 31 32  2  0
 37 38  2  0
 48 49  2  0
 50 51  1  0
M  END
>  <_TriposChargeType>  (122) 
NO_CHARGES

$$$$
HTENTX10
     RDKit          3D

 30 31  0  0  0  0  0  0  0  0999 V2000
    4.8040    1.8615    2.3372 N   0  0  0  0  0  0  0  0  0  0  0  0
    3.6114    1.0789    2.6262 C   0  0  2  0  0  0  0  0  0  0  0  0
    3.6474    0.6636    4.1000 C   0  0  0  0  0  0  0  0  0  0  0  0
    3.4602    1.5971    5.0497 N   0  0  0  0  0  0  0  0  0  0  0  0
    3.1751    3.0313    4.8683 C   0  0  2  0  0  0  0  0  0  0  0  0
    4.4966    3.8142    4.7487 C   0  0  0  0  0  0  0  0  0  0  0  0
    4.4422    5.0252    4.1478 N   0  0  0  0  0  0  0  0  0  0  0  0
    5.7068    5.7778    3.9677 C   0  0  1  0  0  0  0  0  0  0  0  0
    5.7415    6.2660    2.4814 C   0  0  0  0  0  0  0  0  0  0  0  0
    5.8343    5.3226    1.5323 N   0  0  0  0  0  0  0  0  0  0  0  0
    6.0139    3.8943    1.7004 C   0  0  0  0  0  0  0  0  0  0  0  0
    4.7120    3.1125    1.8390 C   0  0  0  0  0  0  0  0  0  0  0  0
    6.1036    1.2463    2.7018 C   0  0  0  0  0  0  0  0  0  0  0  0
    3.4653   -0.1148    1.7004 C   0  0  0  0  0  0  0  0  0  0  0  0
    3.8895   -0.4980    4.4212 O   0  0  0  0  0  0  0  0  0  0  0  0
    2.3917    3.4940    6.0964 C   0  0  0  0  0  0  0  0  0  0  0  0
    1.0154    2.8312    6.2476 C   0  0  0  0  0  0  0  0  0  0  0  0
    0.0700    3.2122    5.1265 C   0  0  0  0  0  0  0  0  0  0  0  0
    0.3999    3.2630    7.6079 C   0  0  0  0  0  0  0  0  0  0  0  0
    5.5601    3.3224    5.1372 O   0  0  0  0  0  0  0  0  0  0  0  0
    3.2121    5.7316    3.7725 C   0  0  0  0  0  0  0  0  0  0  0  0
    5.8102    6.9414    4.9817 C   0  0  0  0  0  0  0  0  0  0  0  0
    7.2337    7.3705    5.2210 C   0  0  0  0  0  0  0  0  0  0  0  0
    7.9698    6.8194    6.2728 C   0  0  0  0  0  0  0  0  0  0  0  0
    9.2536    7.2365    6.5814 C   0  0  0  0  0  0  0  0  0  0  0  0
    9.8577    8.1852    5.7752 C   0  0  0  0  0  0  0  0  0  0  0  0
    9.1696    8.7374    4.7424 C   0  0  0  0  0  0  0  0  0  0  0  0
    7.8645    8.3558    4.4401 C   0  0  0  0  0  0  0  0  0  0  0  0
    5.6802    7.4463    2.2037 O   0  0  0  0  0  0  0  0  0  0  0  0
    3.6310    3.6022    1.4977 O   0  0  0  0  0  0  0  0  0  0  0  0
  1  2  1  0
  2  3  1  0
  3  4  1  0
  4  5  1  0
  5  6  1  0
  6  7  1  0
  7  8  1  0
  8  9  1  0
  9 10  1  0
 10 11  1  0
 11 12  1  0
 12  1  1  0
 13  1  1  0
  2 14  1  6
 15  3  2  0
  5 16  1  1
 17 16  1  0
 18 17  1  0
 19 17  1  0
 20  6  2  0
 21  7  1  0
  8 22  1  1
 23 22  1  0
 24 23  2  0
 25 24  1  0
 26 25  2  0
 27 26  1  0
 28 23  1  0
 29  9  2  0
 30 12  2  0
 27 28  2  0
M  END
>  <_TriposChargeType>  (123) 
NO_CHARGES

$$$$
IDUZEN
     RDKit          3D

 49 53  0  0  0  0  0  0  0  0999 V2000
    6.2053    0.9952   19.1758 S   0  0  0  0  0  0  0  0  0  0  0  0
   -4.5439    1.0135   13.0189 S   0  0  0  0  0  0  0  0  0  0  0  0
   -2.3198   -2.1147   14.5001 S   0  0  0  0  0  0  0  0  0  0  0  0
    2.1137    1.4482   19.2572 S   0  0  0  0  0  0  0  0  0  0  0  0
    5.4504    0.8436   15.4119 O   0  0  0  0  0  0  0  0  0  0  0  0
    4.5080    1.6517   12.8129 O   0  0  0  0  0  0  0  0  0  0  0  0
    1.6560    2.5418   11.9492 O   0  0  0  0  0  0  0  0  0  0  0  0
   -1.2125    2.3791   11.6609 O   0  0  0  0  0  0  0  0  0  0  0  0
    0.8722    1.2118   15.6137 O   0  0  0  0  0  0  0  0  0  0  0  0
   -2.3208   -3.0600   13.4230 O   0  0  0  0  0  0  0  0  0  0  0  0
   -1.5879   -2.3982   15.7074 O   0  0  0  0  0  0  0  0  0  0  0  0
    1.2045    2.5458   19.1002 O   0  0  0  0  0  0  0  0  0  0  0  0
    3.0876    1.5227   20.3108 O   0  0  0  0  0  0  0  0  0  0  0  0
   -1.6956   -0.7409   13.9116 N   0  0  0  0  0  0  0  0  0  0  0  0
    2.8225    1.2009   17.8217 N   0  0  0  0  0  0  0  0  0  0  0  0
    5.2728    0.7282   17.7531 C   0  0  0  0  0  0  0  0  0  0  0  0
    6.0207    0.9955   16.6449 C   0  0  0  0  0  0  0  0  0  0  0  0
    7.3525    1.4146   16.9274 C   0  0  0  0  0  0  0  0  0  0  0  0
    7.5841    1.4282   18.2655 C   0  0  0  0  0  0  0  0  0  0  0  0
    6.2916    1.0109   14.2703 C   0  0  0  0  0  0  0  0  0  0  0  0
    5.4870    0.6491   13.0575 C   0  0  0  0  0  0  0  0  0  0  0  0
    3.7087    1.2927   11.6877 C   0  0  0  0  0  0  0  0  0  0  0  0
    2.8686    2.4455   11.2224 C   0  0  0  0  0  0  0  0  0  0  0  0
    0.8192    3.5509   11.4075 C   0  0  0  0  0  0  0  0  0  0  0  0
   -0.5032    3.5519   12.0982 C   0  0  0  0  0  0  0  0  0  0  0  0
   -2.9024    0.9618   12.5339 C   0  0  0  0  0  0  0  0  0  0  0  0
   -2.4727    2.2100   12.1744 C   0  0  0  0  0  0  0  0  0  0  0  0
   -3.4662    3.2119   12.2941 C   0  0  0  0  0  0  0  0  0  0  0  0
   -4.6390    2.7064   12.7362 C   0  0  0  0  0  0  0  0  0  0  0  0
   -2.0646   -0.2909   12.5523 C   0  0  0  0  0  0  0  0  0  0  0  0
   -1.1170    0.2518   14.8400 C   0  0  0  0  0  0  0  0  0  0  0  0
    0.3412    0.4682   14.5346 C   0  0  0  0  0  0  0  0  0  0  0  0
    2.2355    1.5555   15.4324 C   0  0  0  0  0  0  0  0  0  0  0  0
    2.7390    2.1727   16.7177 C   0  0  0  0  0  0  0  0  0  0  0  0
    3.8826    0.1773   17.7706 C   0  0  0  0  0  0  0  0  0  0  0  0
   -3.9978   -1.8373   14.9608 C   0  0  0  0  0  0  0  0  0  0  0  0
   -4.2780   -1.1936   16.1508 C   0  0  0  0  0  0  0  0  0  0  0  0
   -5.5835   -0.9282   16.4916 C   0  0  0  0  0  0  0  0  0  0  0  0
   -6.6415   -1.2855   15.6578 C   0  0  0  0  0  0  0  0  0  0  0  0
   -6.3329   -1.9482   14.4748 C   0  0  0  0  0  0  0  0  0  0  0  0
   -5.0343   -2.2200   14.1117 C   0  0  0  0  0  0  0  0  0  0  0  0
   -8.0568   -0.9518   16.0250 C   0  0  0  0  0  0  0  0  0  0  0  0
    1.1903   -0.0345   19.5279 C   0  0  0  0  0  0  0  0  0  0  0  0
    1.4247   -0.8109   20.6511 C   0  0  0  0  0  0  0  0  0  0  0  0
    0.6833   -1.9627   20.8462 C   0  0  0  0  0  0  0  0  0  0  0  0
   -0.2767   -2.3682   19.9278 C   0  0  0  0  0  0  0  0  0  0  0  0
   -0.4965   -1.5727   18.8046 C   0  0  0  0  0  0  0  0  0  0  0  0
    0.2275   -0.4118   18.5890 C   0  0  0  0  0  0  0  0  0  0  0  0
   -1.0280   -3.6609   20.1146 C   0  0  0  0  0  0  0  0  0  0  0  0
  1 16  1  0
  2 26  1  0
  3 10  2  0
  4 12  2  0
  5 17  1  0
  6 21  1  0
  7 23  1  0
  8 25  1  0
  9 32  1  0
 11  3  2  0
 13  4  2  0
 14  3  1  0
 15  4  1  0
 16 17  2  0
 17 18  1  0
 19  1  1  0
 20  5  1  0
 21 20  1  0
 22  6  1  0
 23 22  1  0
 24  7  1  0
 25 24  1  0
 26 27  2  0
 27  8  1  0
 28 27  1  0
 29  2  1  0
 30 14  1  0
 31 14  1  0
 32 31  1  0
 33  9  1  0
 34 15  1  0
 35 15  1  0
 36  3  1  0
 37 36  2  0
 38 37  1  0
 39 38  2  0
 40 39  1  0
 41 36  1  0
 42 39  1  0
 43  4  1  0
 44 43  2  0
 45 44  1  0
 46 45  2  0
 47 46  1  0
 48 43  1  0
 49 46  1  0
 16 35  1  0
 18 19  2  0
 26 30  1  0
 28 29  2  0
 33 34  1  0
 40 41  2  0
 47 48  2  0
M  END
>  <_TriposChargeType>  (124) 
NO_CHARGES

$$$$
IHOYEJ
     RDKit          3D

 18 18  0  0  0  0  0  0  0  0999 V2000
   -1.1543    2.7551   14.4441 O   0  0  0  0  0  0  0  0  0  0  0  0
   -0.3252    4.4862   13.3411 O   0  0  0  0  0  0  0  0  0  0  0  0
   -1.3759   10.3073   14.6620 O   0  0  0  0  0  0  0  0  0  0  0  0
   -0.0288    8.5298   14.5042 O   0  0  0  0  0  0  0  0  0  0  0  0
   -0.4182    3.6876   14.3926 C   0  0  0  0  0  0  0  0  0  0  0  0
   -1.1865    4.1692   12.2117 C   0  0  0  0  0  0  0  0  0  0  0  0
   -1.1356    5.3270   11.2522 C   0  0  2  0  0  0  0  0  0  0  0  0
   -1.6876    6.5676   11.8544 C   0  0  0  0  0  0  0  0  0  0  0  0
   -1.0196    7.6620   12.1428 C   0  0  0  0  0  0  0  0  0  0  0  0
   -1.5759    8.9053   12.7344 C   0  0  0  0  0  0  0  0  0  0  0  0
   -0.9961    9.3433   14.0593 C   0  0  0  0  0  0  0  0  0  0  0  0
    0.4959    8.8613   15.8149 C   0  0  0  0  0  0  0  0  0  0  0  0
    1.4646    7.7701   16.2476 C   0  0  2  0  0  0  0  0  0  0  0  0
    0.8397    6.4067   16.2715 C   0  0  0  0  0  0  0  0  0  0  0  0
    1.1232    5.4296   15.4430 C   0  0  0  0  0  0  0  0  0  0  0  0
    0.5127    4.0665   15.5107 C   0  0  0  0  0  0  0  0  0  0  0  0
   -1.8718    4.9296    9.9690 C   0  0  0  0  0  0  0  0  0  0  0  0
    1.9951    8.1521   17.6348 C   0  0  0  0  0  0  0  0  0  0  0  0
  1  5  2  0
  2  5  1  0
  3 11  2  0
  4 11  1  0
  5 16  1  0
  6  2  1  0
  7  6  1  0
  8  7  1  0
  9  8  2  0
 10  9  1  0
 11 10  1  0
 12  4  1  0
 13 12  1  0
 14 13  1  0
 15 14  2  0
 16 15  1  0
  7 17  1  6
 13 18  1  1
M  END
>  <_TriposChargeType>  (125) 
NO_CHARGES

$$$$
IWUGUC
     RDKit          3D

 52 55  0  0  0  0  0  0  0  0999 V2000
   -1.8902    4.8140    6.5771 N   0  0  0  0  0  0  0  0  0  0  0  0
   -2.2664    4.6193    7.9634 C   0  0  0  0  0  0  0  0  0  0  0  0
   -3.1530    5.7586    8.4447 C   0  0  0  0  0  0  0  0  0  0  0  0
   -2.3877    7.0259    8.5998 C   0  0  0  0  0  0  0  0  0  0  0  0
   -1.3052    7.1060    9.1207 O   0  0  0  0  0  0  0  0  0  0  0  0
   -3.0521    8.0911    8.1292 O   0  0  0  0  0  0  0  0  0  0  0  0
   -2.4034    9.3831    8.3153 C   0  0  2  0  0  0  0  0  0  0  0  0
   -2.1769    9.6126    9.8031 C   0  0  0  0  0  0  0  0  0  0  0  0
   -2.9495    9.1512   10.6278 O   0  0  0  0  0  0  0  0  0  0  0  0
   -3.3521   10.4092    7.7206 C   0  0  0  0  0  0  0  0  0  0  0  0
   -3.3181   10.5090    6.2060 C   0  0  0  0  0  0  0  0  0  0  0  0
   -1.9834   11.0365    5.7268 C   0  0  0  0  0  0  0  0  0  0  0  0
   -4.4495   11.3872    5.6958 C   0  0  0  0  0  0  0  0  0  0  0  0
   -1.0870   10.3042   10.1551 N   0  0  0  0  0  0  0  0  0  0  0  0
   -0.2217   11.1255    9.2994 C   0  0  2  0  0  0  0  0  0  0  0  0
    0.8577   10.3797    8.5303 C   0  0  0  0  0  0  0  0  0  0  0  0
    1.6208   10.9847    7.7976 O   0  0  0  0  0  0  0  0  0  0  0  0
    0.4141   12.1178   10.3005 C   0  0  2  0  0  0  0  0  0  0  0  0
    0.5043   11.2868   11.5734 C   0  0  0  0  0  0  0  0  0  0  0  0
   -0.7901   10.5232   11.5873 C   0  0  0  0  0  0  0  0  0  0  0  0
   -0.4270   13.3517   10.4834 C   0  0  0  0  0  0  0  0  0  0  0  0
    0.9116    9.0629    8.6918 N   0  0  0  0  0  0  0  0  0  0  0  0
    1.8210    8.2274    7.9163 C   0  0  2  0  0  0  0  0  0  0  0  0
    1.2258    7.9955    6.5312 C   0  0  0  0  0  0  0  0  0  0  0  0
    0.0070    8.0137    6.3771 O   0  0  0  0  0  0  0  0  0  0  0  0
    2.0257    6.8975    8.6383 C   0  0  0  0  0  0  0  0  0  0  0  0
    2.4327    7.0660   10.0780 C   0  0  0  0  0  0  0  0  0  0  0  0
    1.5549    6.7871   11.0985 C   0  0  0  0  0  0  0  0  0  0  0  0
    1.9419    6.8959   12.4195 C   0  0  0  0  0  0  0  0  0  0  0  0
    3.2192    7.3337   12.7104 C   0  0  0  0  0  0  0  0  0  0  0  0
    4.0747    7.6542   11.7349 C   0  0  0  0  0  0  0  0  0  0  0  0
    3.6947    7.5338   10.4075 C   0  0  0  0  0  0  0  0  0  0  0  0
    2.0790    7.7060    5.5118 N   0  0  0  0  0  0  0  0  0  0  0  0
    3.5369    7.7747    5.6594 C   0  0  0  0  0  0  0  0  0  0  0  0
    1.5204    7.3614    4.1919 C   0  0  2  0  0  0  0  0  0  0  0  0
    1.8384    5.8788    3.9480 C   0  0  0  0  0  0  0  0  0  0  0  0
    2.9703    5.5899    3.5362 O   0  0  0  0  0  0  0  0  0  0  0  0
    2.0088    8.2543    3.0698 C   0  0  0  0  0  0  0  0  0  0  0  0
    1.3214    7.8964    1.7627 C   0  0  0  0  0  0  0  0  0  0  0  0
    1.7608    9.7192    3.4132 C   0  0  0  0  0  0  0  0  0  0  0  0
    0.9486    4.9234    4.2389 N   0  0  0  0  0  0  0  0  0  0  0  0
    1.4025    3.5211    4.1330 C   0  0  0  0  0  0  0  0  0  0  0  0
   -0.4373    5.1215    4.6572 C   0  0  2  0  0  0  0  0  0  0  0  0
   -0.6225    4.7634    6.1290 C   0  0  0  0  0  0  0  0  0  0  0  0
    0.3280    4.5024    6.8659 O   0  0  0  0  0  0  0  0  0  0  0  0
   -1.4222    4.3987    3.7148 C   0  0  0  0  0  0  0  0  0  0  0  0
   -1.3544    4.8796    2.2954 C   0  0  0  0  0  0  0  0  0  0  0  0
   -1.9001    6.1039    1.9435 C   0  0  0  0  0  0  0  0  0  0  0  0
   -1.8905    6.5339    0.6471 C   0  0  0  0  0  0  0  0  0  0  0  0
   -1.3221    5.7407   -0.3262 C   0  0  0  0  0  0  0  0  0  0  0  0
   -0.7892    4.5665    0.0118 C   0  0  0  0  0  0  0  0  0  0  0  0
   -0.8136    4.1218    1.3103 C   0  0  0  0  0  0  0  0  0  0  0  0
  2  1  1  0
  3  2  1  0
  4  3  1  0
  5  4  2  0
  6  4  1  0
  7  6  1  0
  8  7  1  0
  9  8  2  0
  7 10  1  1
 11 10  1  0
 12 11  1  0
 13 11  1  0
 14  8  1  0
 15 14  1  0
 15 16  1  1
 17 16  2  0
 18 15  1  0
 19 18  1  0
 20 14  1  0
 18 21  1  1
 22 16  1  0
 23 22  1  0
 24 23  1  0
 25 24  2  0
 23 26  1  1
 27 26  1  0
 28 27  2  0
 29 28  1  0
 30 29  2  0
 31 30  1  0
 32 27  1  0
 33 24  1  0
 34 33  1  0
 35 33  1  0
 36 35  1  0
 37 36  2  0
 35 38  1  6
 39 38  1  0
 40 38  1  0
 41 36  1  0
 42 41  1  0
 43 41  1  0
 44  1  1  0
 45 44  2  0
 43 46  1  6
 47 46  1  0
 48 47  2  0
 49 48  1  0
 50 49  2  0
 51 50  1  0
 52 47  1  0
 19 20  1  0
 31 32  2  0
 43 44  1  0
 51 52  2  0
M  END
>  <_TriposChargeType>  (126) 
NO_CHARGES

$$$$
JECWIY
     RDKit          3D

 36 38  0  0  0  0  0  0  0  0999 V2000
    4.0314    3.6212    2.1160 O   0  0  0  0  0  0  0  0  0  0  0  0
    2.8700    2.1595    3.3917 O   0  0  0  0  0  0  0  0  0  0  0  0
    2.5834   -0.4981    4.7315 O   0  0  0  0  0  0  0  0  0  0  0  0
    4.7243   -1.0242    5.2234 N   0  0  0  0  0  0  0  0  0  0  0  0
    3.3056    3.3870    3.0498 C   0  0  0  0  0  0  0  0  0  0  0  0
    3.2080    1.0536    2.5240 C   0  0  0  0  0  0  0  0  0  0  0  0
    4.2927    0.1539    3.1250 C   0  0  1  0  0  0  0  0  0  0  0  0
    3.7742   -0.4720    4.4349 C   0  0  0  0  0  0  0  0  0  0  0  0
    2.6625    4.4710    3.9237 C   0  0  0  0  0  0  0  0  0  0  0  0
    4.4978   -0.9780    2.1014 C   0  0  0  0  0  0  0  0  0  0  0  0
    5.6700   -1.1162    1.3695 C   0  0  0  0  0  0  0  0  0  0  0  0
    5.7927   -2.1184    0.4104 C   0  0  0  0  0  0  0  0  0  0  0  0
    4.7452   -2.9764    0.1602 C   0  0  0  0  0  0  0  0  0  0  0  0
    3.5759   -2.8568    0.8830 C   0  0  0  0  0  0  0  0  0  0  0  0
    3.4534   -1.8677    1.8484 C   0  0  0  0  0  0  0  0  0  0  0  0
    5.5611    0.9883    3.3873 C   0  0  0  0  0  0  0  0  0  0  0  0
    1.3025    4.7858    3.2919 C   0  0  0  0  0  0  0  0  0  0  0  0
    3.5276    5.7190    3.9345 C   0  0  0  0  0  0  0  0  0  0  0  0
    3.0963   -0.6741    8.3807 O   0  0  0  0  0  0  0  0  0  0  0  0
    4.2577    0.7876    7.1050 O   0  0  0  0  0  0  0  0  0  0  0  0
    4.5443    3.4453    5.7652 O   0  0  0  0  0  0  0  0  0  0  0  0
    2.4033    3.9714    5.2734 N   0  0  0  0  0  0  0  0  0  0  0  0
    3.8221   -0.4398    7.4469 C   0  0  0  0  0  0  0  0  0  0  0  0
    3.9196    1.8936    7.9727 C   0  0  0  0  0  0  0  0  0  0  0  0
    2.8349    2.7933    7.3718 C   0  0  2  0  0  0  0  0  0  0  0  0
    3.3535    3.4192    6.0619 C   0  0  0  0  0  0  0  0  0  0  0  0
    4.4651   -1.5239    6.5731 C   0  0  0  0  0  0  0  0  0  0  0  0
    2.6299    3.9252    8.3953 C   0  0  0  0  0  0  0  0  0  0  0  0
    1.4576    4.0634    9.1272 C   0  0  0  0  0  0  0  0  0  0  0  0
    1.3349    5.0656   10.0863 C   0  0  0  0  0  0  0  0  0  0  0  0
    2.3824    5.9236   10.3366 C   0  0  0  0  0  0  0  0  0  0  0  0
    3.5517    5.8040    9.6138 C   0  0  0  0  0  0  0  0  0  0  0  0
    3.6742    4.8148    8.6484 C   0  0  0  0  0  0  0  0  0  0  0  0
    1.5665    1.9589    7.1094 C   0  0  0  0  0  0  0  0  0  0  0  0
    5.8251   -1.8387    7.2049 C   0  0  0  0  0  0  0  0  0  0  0  0
    3.6000   -2.7719    6.5622 C   0  0  0  0  0  0  0  0  0  0  0  0
  1  5  2  0
  2  5  1  0
  3  8  2  0
  5  9  1  0
  6  2  1  0
  7  6  1  0
  8  4  1  0
  9 17  1  0
  7 10  1  0
 11 10  2  0
 12 11  1  0
 13 12  2  0
 14 13  1  0
 15 10  1  0
  7 16  1  1
 18  9  1  0
 19 23  2  0
 20 23  1  0
 21 26  2  0
 22  9  1  0
 23 27  1  0
 24 20  1  0
 25 24  1  0
 26 22  1  0
 27  4  1  0
 25 28  1  0
 29 28  2  0
 30 29  1  0
 31 30  2  0
 32 31  1  0
 33 28  1  0
 25 34  1  6
 35 27  1  0
 36 27  1  0
  7  8  1  0
 14 15  2  0
 25 26  1  0
 32 33  2  0
M  END
>  <_TriposChargeType>  (127) 
NO_CHARGES

$$$$
JEFHEH
     RDKit          3D

 18 18  0  0  0  0  0  0  0  0999 V2000
   -2.0487    0.5815    6.8615 O   0  0  0  0  0  0  0  0  0  0  0  0
   -2.6385    1.5649    7.5361 C   0  0  0  0  0  0  0  0  0  0  0  0
   -3.5540    1.3734    8.2933 O   0  0  0  0  0  0  0  0  0  0  0  0
   -2.0192    2.8857    7.2435 C   0  0  0  0  0  0  0  0  0  0  0  0
   -1.8298    3.1549    5.7601 C   0  0  0  0  0  0  0  0  0  0  0  0
   -0.7518    3.4793    5.3229 O   0  0  0  0  0  0  0  0  0  0  0  0
   -3.0211    3.0358    4.9133 C   0  0  0  0  0  0  0  0  0  0  0  0
   -3.0562    3.4137    3.6605 C   0  0  0  0  0  0  0  0  0  0  0  0
   -4.2248    3.3818    2.7415 C   0  0  0  0  0  0  0  0  0  0  0  0
   -3.9105    2.8460    1.3475 C   0  0  0  0  0  0  0  0  0  0  0  0
   -3.3783    1.4243    1.3320 C   0  0  0  0  0  0  0  0  0  0  0  0
   -4.3511    0.3718    1.8586 C   0  0  0  0  0  0  0  0  0  0  0  0
   -3.8742   -1.0706    1.7313 C   0  0  0  0  0  0  0  0  0  0  0  0
   -2.6624   -1.4122    2.5470 C   0  0  0  0  0  0  0  0  0  0  0  0
   -2.8782   -1.3941    4.0615 C   0  0  0  0  0  0  0  0  0  0  0  0
   -1.6053   -1.5218    4.8393 C   0  0  0  0  0  0  0  0  0  0  0  0
   -1.7617   -1.7487    6.3331 C   0  0  0  0  0  0  0  0  0  0  0  0
   -2.6199   -0.7454    7.0508 C   0  0  0  0  0  0  0  0  0  0  0  0
  1  2  1  0
  2  3  2  0
  4  2  1  0
  5  4  1  0
  6  5  2  0
  7  5  1  0
  8  7  2  0
  9  8  1  0
 10  9  1  0
 11 10  1  0
 12 11  1  0
 13 12  1  0
 14 13  1  0
 15 14  1  0
 16 15  1  0
 17 16  1  0
 18  1  1  0
 17 18  1  0
M  END
>  <_TriposChargeType>  (128) 
NO_CHARGES

$$$$
JELTID
     RDKit          3D

 17 18  0  0  0  0  0  0  0  0999 V2000
   -0.7725    2.8548    9.8424 O   0  0  0  0  0  0  0  0  0  0  0  0
    2.0546    4.3795    8.1956 O   0  0  0  0  0  0  0  0  0  0  0  0
    1.5560    1.9310    8.4775 C   0  0  0  0  0  3  0  0  0  0  0  0
    1.8068    1.4613    7.2601 C   0  0  0  0  0  3  0  0  0  0  0  0
    1.8725    2.2195    5.9593 C   0  0  0  0  0  2  0  0  0  0  0  0
    0.5112    2.1199    5.2715 C   0  0  0  0  0  0  0  0  0  0  0  0
   -0.5792    2.8897    5.9037 C   0  0  0  0  0  3  0  0  0  0  0  0
   -0.4442    4.0735    6.4847 C   0  0  0  0  0  3  0  0  0  0  0  0
   -1.4323    4.7631    7.3775 C   0  0  0  0  0  3  0  0  0  0  0  0
   -0.7504    4.9675    8.7531 C   0  0  0  0  0  2  0  0  0  0  0  0
   -0.1392    3.6692    9.2080 C   0  0  0  0  0  0  0  0  0  0  0  0
    1.3064    3.3438    8.8770 C   0  0  2  0  0  0  0  0  0  0  0  0
   -1.9510    6.0880    6.7859 C   0  0  0  0  0  3  0  0  0  0  0  0
   -2.8091    5.7936    5.5556 C   0  0  0  0  0  1  0  0  0  0  0  0
   -2.7264    6.9335    7.7770 C   0  0  0  0  0  1  0  0  0  0  0  0
    2.3364    4.1285    9.5904 C   0  0  0  0  0  2  0  0  0  0  0  0
    0.3095    1.2802    4.2740 C   0  0  0  0  0  2  0  0  0  0  0  0
  1 11  2  0
 12  2  1  0
  3  4  2  0
  4  5  1  0
  5  6  1  0
  6  7  1  0
  7  8  2  0
  8  9  1  0
  9 10  1  0
 10 11  1  0
 11 12  1  0
 12  3  1  6
 13  9  1  0
 14 13  1  0
 15 13  1  0
 16  2  1  0
 17  6  2  0
 12 16  1  0
M  RAD  8   3   2   4   2   5   3   7   2   8   2   9   2  10   3  13   2
M  RAD  4  14   2  15   2  16   3  17   3
M  END
>  <_TriposChargeType>  (129) 
NO_CHARGES

$$$$
JILWEG
     RDKit          3D

 32 32  0  0  0  0  0  0  0  0999 V2000
    4.1857    3.9751    1.6033 O   0  0  0  0  0  0  0  0  0  0  0  0
    2.6002    4.2463    3.1446 O   0  0  0  0  0  0  0  0  0  0  0  0
    0.7118    1.3191    2.8531 O   0  0  0  0  0  0  0  0  0  0  0  0
    2.9440    1.1467    3.0195 O   0  0  0  0  0  0  0  0  0  0  0  0
    0.3125    6.5205   -5.4499 O   0  0  0  0  0  0  0  0  0  0  0  0
   -1.8743    6.3289   -5.8617 O   0  0  0  0  0  0  0  0  0  0  0  0
   -2.6225    3.0495   -5.0540 O   0  0  0  0  0  0  0  0  0  0  0  0
   -0.9780    3.4460   -6.5103 O   0  0  0  0  0  0  0  0  0  0  0  0
   -0.1217    6.0150   -1.5571 C   0  0  0  0  0  0  0  0  0  0  0  0
   -0.1083    5.1085   -0.5952 C   0  0  0  0  0  0  0  0  0  0  0  0
    1.0521    4.7577    0.3000 C   0  0  0  0  0  0  0  0  0  0  0  0
    0.8340    3.4312    1.0312 C   0  0  0  0  0  0  0  0  0  0  0  0
    2.1298    2.6987    1.4417 C   0  0  0  0  0  0  0  0  0  0  0  0
    2.8335    2.0192    0.2247 C   0  0  0  0  0  0  0  0  0  0  0  0
    2.0114    1.0081   -0.5332 C   0  0  0  0  0  0  0  0  0  0  0  0
    1.3530    1.2852   -1.6604 C   0  0  0  0  0  0  0  0  0  0  0  0
    1.2848    2.5454   -2.3697 C   0  0  0  0  0  0  0  0  0  0  0  0
    0.4937    2.8078   -3.3948 C   0  0  0  0  0  0  0  0  0  0  0  0
    0.4907    4.0960   -4.1515 C   0  0  0  0  0  0  0  0  0  0  0  0
   -0.9020    4.6619   -4.4952 C   0  0  0  0  0  0  0  0  0  0  0  0
   -1.7705    4.9965   -3.2661 C   0  0  0  0  0  0  0  0  0  0  0  0
   -1.3387    6.2022   -2.4268 C   0  0  0  0  0  0  0  0  0  0  0  0
    1.0515    6.9082   -1.8268 C   0  0  0  0  0  0  0  0  0  0  0  0
    1.9910   -0.3921    0.0304 C   0  0  0  0  0  0  0  0  0  0  0  0
    3.1169    3.6965    2.0405 C   0  0  0  0  0  0  0  0  0  0  0  0
    3.4257    5.2810    3.7677 C   0  0  0  0  0  0  0  0  0  0  0  0
    1.8111    1.6537    2.5167 C   0  0  0  0  0  0  0  0  0  0  0  0
    2.7755    0.0988    4.0216 C   0  0  0  0  0  0  0  0  0  0  0  0
   -0.7142    5.9280   -5.3248 C   0  0  0  0  0  0  0  0  0  0  0  0
   -1.7839    7.4948   -6.7362 C   0  0  0  0  0  0  0  0  0  0  0  0
   -1.6383    3.6317   -5.3588 C   0  0  0  0  0  0  0  0  0  0  0  0
   -1.5022    2.4614   -7.4540 C   0  0  0  0  0  0  0  0  0  0  0  0
  1 25  2  0
  2 25  1  0
  3 27  2  0
  4 27  1  0
  5 29  2  0
  6 29  1  0
  7 31  2  0
  8 31  1  0
  9 10  2  0
 10 11  1  0
 11 12  1  0
 12 13  1  0
 13 14  1  0
 14 15  1  0
 15 16  2  0
 16 17  1  0
 17 18  2  0
 18 19  1  0
 19 20  1  0
 20 21  1  0
 21 22  1  0
 22  9  1  0
 23  9  1  0
 24 15  1  0
 25 13  1  0
 26  2  1  0
 27 13  1  0
 28  4  1  0
 29 20  1  0
 30  6  1  0
 31 20  1  0
 32  8  1  0
M  END
>  <_TriposChargeType>  (130) 
NO_CHARGES

$$$$
JOKNEC
     RDKit          3D

 31 32  0  0  0  0  0  0  0  0999 V2000
   10.3472    5.8686    1.3613 S   0  0  0  0  0  0  0  0  0  0  0  0
    7.2162    6.2584    1.8912 O   0  0  0  0  0  0  0  0  0  0  0  0
    7.7054    4.5678    3.2701 O   0  0  0  0  0  0  0  0  0  0  0  0
   10.5287    4.4475    1.3247 O   0  0  0  0  0  0  0  0  0  0  0  0
    9.7711    6.5121    0.2313 O   0  0  0  0  0  0  0  0  0  0  0  0
    8.7050    7.0015    7.8093 O   0  0  0  0  0  0  0  0  0  0  0  0
   10.3265    7.8869    9.0389 O   0  0  0  0  0  0  0  0  0  0  0  0
    8.0117    5.5867    2.6817 C   0  0  0  0  0  0  0  0  0  0  0  0
    9.3785    6.2195    2.8354 C   0  0  2  0  0  0  0  0  0  0  0  0
    9.2647    7.7139    3.1193 C   0  0  0  0  0  0  0  0  0  0  0  0
    9.1427    8.1964    4.3416 C   0  0  0  0  0  0  0  0  0  0  0  0
    9.1213    7.4527    5.5770 C   0  0  0  0  0  0  0  0  0  0  0  0
    8.8245    7.9420    6.7583 C   0  0  0  0  0  0  0  0  0  0  0  0
    8.4408    9.3587    7.1286 C   0  0  0  0  0  0  0  0  0  0  0  0
    7.1068    9.4302    7.8869 C   0  0  0  0  0  0  0  0  0  0  0  0
    5.9269    8.8349    7.1404 C   0  0  0  0  0  0  0  0  0  0  0  0
    5.5546    9.4866    5.8595 C   0  0  0  0  0  0  0  0  0  0  0  0
    4.2328    9.0229    5.2140 C   0  0  0  0  0  0  0  0  0  0  0  0
    4.1911    7.8198    4.5670 C   0  0  0  0  0  0  0  0  0  0  0  0
    5.0232    7.6381    3.2921 C   0  0  0  0  0  0  0  0  0  0  0  0
    5.0408    6.1782    2.9276 C   0  0  0  0  0  0  0  0  0  0  0  0
    5.8401    5.8210    1.7258 C   0  0  1  0  0  0  0  0  0  0  0  0
    5.3700    6.3599    0.4318 C   0  0  0  0  0  0  0  0  0  0  0  0
    9.4722    7.0993    8.8940 C   0  0  0  0  0  0  0  0  0  0  0  0
    9.1000    6.0341    9.8791 C   0  0  0  0  0  0  0  0  0  0  0  0
   11.9103    6.6086    1.6848 C   0  0  0  0  0  0  0  0  0  0  0  0
   12.8825    5.9025    2.3113 C   0  0  0  0  0  0  0  0  0  0  0  0
   14.1518    6.4225    2.4548 C   0  0  0  0  0  0  0  0  0  0  0  0
   14.4466    7.6820    1.9512 C   0  0  0  0  0  0  0  0  0  0  0  0
   13.4538    8.4214    1.3540 C   0  0  0  0  0  0  0  0  0  0  0  0
   12.1799    7.9057    1.2047 C   0  0  0  0  0  0  0  0  0  0  0  0
  1  4  2  0
  2  8  1  0
  3  8  2  0
  5  1  2  0
  6 13  1  0
  7 24  2  0
  8  9  1  0
  9  1  1  6
 10  9  1  0
 11 10  2  0
 12 11  1  0
 13 12  2  0
 14 13  1  0
 15 14  1  0
 16 15  1  0
 17 16  1  0
 18 17  1  0
 19 18  1  0
 20 19  1  0
 21 20  1  0
 22  2  1  0
 22 23  1  6
 24  6  1  0
 25 24  1  0
 26  1  1  0
 27 26  2  0
 28 27  1  0
 29 28  2  0
 30 29  1  0
 31 26  1  0
 21 22  1  0
 30 31  2  0
M  END
>  <_TriposChargeType>  (131) 
NO_CHARGES

$$$$
JOKPAA
     RDKit          3D

 20 21  0  0  0  0  0  0  0  0999 V2000
   -0.2266    3.1066    3.7132 O   0  0  0  0  0  0  0  0  0  0  0  0
    1.3572    3.9778    5.0436 O   0  0  0  0  0  0  0  0  0  0  0  0
    4.2134   -0.1870    5.9488 O   0  0  0  0  0  0  0  0  0  0  0  0
    6.7562    0.1551    4.2276 O   0  0  0  0  0  0  0  0  0  0  0  0
    0.8444    3.0365    4.4782 C   0  0  0  0  0  0  0  0  0  0  0  0
    1.3368    1.6270    4.5733 C   0  0  0  0  0  0  0  0  0  0  0  0
    2.5787    1.3677    4.9415 C   0  0  0  0  0  0  0  0  0  0  0  0
    3.1087   -0.0248    5.0306 C   0  0  1  0  0  0  0  0  0  0  0  0
    4.4429   -0.3832    4.5531 C   0  0  1  0  0  0  0  0  0  0  0  0
    5.4245    0.5355    3.8795 C   0  0  2  0  0  0  0  0  0  0  0  0
    5.3476    0.4484    2.3615 C   0  0  0  0  0  0  0  0  0  0  0  0
    4.0897    1.0263    1.7426 C   0  0  0  0  0  0  0  0  0  0  0  0
    4.0292    2.5690    1.7830 C   0  0  0  0  0  0  0  0  0  0  0  0
    2.7671    3.1073    1.1356 C   0  0  0  0  0  0  0  0  0  0  0  0
    2.6626    4.6443    1.2081 C   0  0  0  0  0  0  0  0  0  0  0  0
    1.4084    5.1940    0.5524 C   0  0  0  0  0  0  0  0  0  0  0  0
    0.1077    4.7407    1.1962 C   0  0  0  0  0  0  0  0  0  0  0  0
   -0.0947    5.2825    2.6228 C   0  0  0  0  0  0  0  0  0  0  0  0
   -0.9058    4.4028    3.5553 C   0  0  1  0  0  0  0  0  0  0  0  0
   -2.2826    4.0281    3.0492 C   0  0  0  0  0  0  0  0  0  0  0  0
  1  5  1  0
  2  5  2  0
  8  3  1  0
 10  4  1  1
  5  6  1  0
  6  7  2  0
  8  7  1  6
  8  9  1  0
  9  3  1  1
 10  9  1  0
 11 10  1  0
 12 11  1  0
 13 12  1  0
 14 13  1  0
 15 14  1  0
 16 15  1  0
 17 16  1  0
 18 17  1  0
 19  1  1  0
 19 20  1  6
 18 19  1  0
M  END
>  <_TriposChargeType>  (132) 
NO_CHARGES

$$$$
KEPNAU
     RDKit          3D

 85 85  0  0  0  0  0  0  0  0999 V2000
   -4.4524    8.4709   30.5389 N   0  0  0  0  0  0  0  0  0  0  0  0
   -5.5702    7.8828   29.7947 C   0  0  0  0  0  0  0  0  0  0  0  0
   -4.1774    7.9549   31.9040 C   0  0  2  0  0  0  0  0  0  0  0  0
   -3.6311    6.5512   31.7478 C   0  0  0  0  0  0  0  0  0  0  0  0
   -4.3751    5.6227   31.4247 O   0  0  0  0  0  0  0  0  0  0  0  0
   -5.4371    7.9988   32.8079 C   0  0  2  0  0  0  0  0  0  0  0  0
   -6.0810    9.2583   32.7208 O   0  0  0  0  0  0  0  0  0  0  0  0
   -5.0962    7.7244   34.2819 C   0  0  2  0  0  0  0  0  0  0  0  0
   -6.3560    7.5299   35.0334 C   0  0  0  0  0  0  0  0  0  0  0  0
   -4.2331    8.8473   34.8918 C   0  0  0  0  0  0  0  0  0  0  0  0
   -3.6780    8.5352   36.2278 C   0  0  0  0  0  0  0  0  0  0  0  0
   -3.8529    9.1500   37.3060 C   0  0  0  0  0  0  0  0  0  0  0  0
   -3.2598    8.9038   38.6674 C   0  0  0  0  0  0  0  0  0  0  0  0
   -2.2953    6.4383   31.8967 N   0  0  0  0  0  0  0  0  0  0  0  0
   -1.5614    5.2510   31.5663 C   0  0  2  0  0  0  0  0  0  0  0  0
   -1.1204    4.5735   32.8769 C   0  0  0  0  0  0  0  0  0  0  0  0
   -0.2091    5.0785   33.5231 O   0  0  0  0  0  0  0  0  0  0  0  0
   -0.3954    5.6651   30.7023 C   0  0  0  0  0  0  0  0  0  0  0  0
    0.3764    4.4590   30.1614 C   0  0  0  0  0  0  0  0  0  0  0  0
   -1.7439    3.4599   33.3271 N   0  0  0  0  0  0  0  0  0  0  0  0
   -3.0012    2.8498   32.7789 C   0  0  0  0  0  0  0  0  0  0  0  0
   -1.2902    2.9909   34.6449 C   0  0  0  0  0  0  0  0  0  0  0  0
   -1.7313    4.1108   35.6723 C   0  0  0  0  0  0  0  0  0  0  0  0
   -2.8478    4.5829   35.5961 O   0  0  0  0  0  0  0  0  0  0  0  0
   -0.8251    4.4888   36.6053 N   0  0  0  0  0  0  0  0  0  0  0  0
    0.5095    3.9461   36.7033 C   0  0  0  0  0  0  0  0  0  0  0  0
   -1.1698    5.6290   37.4585 C   0  0  2  0  0  0  0  0  0  0  0  0
   -0.4068    6.8727   37.0628 C   0  0  0  0  0  0  0  0  0  0  0  0
   -0.0989    7.7291   37.8578 O   0  0  0  0  0  0  0  0  0  0  0  0
   -1.0393    5.2886   38.9542 C   0  0  0  0  0  0  0  0  0  0  0  0
   -1.9886    4.1939   39.4225 C   0  0  0  0  0  0  0  0  0  0  0  0
   -1.6248    3.6779   40.7476 C   0  0  0  0  0  0  0  0  0  0  0  0
   -3.3840    4.5342   39.3644 C   0  0  0  0  0  0  0  0  0  0  0  0
   -0.1280    7.0358   35.7667 N   0  0  0  0  0  0  0  0  0  0  0  0
    0.5298    8.2027   35.2258 C   0  0  2  0  0  0  0  0  0  0  0  0
   -0.4296    9.0324   34.4271 C   0  0  0  0  0  0  0  0  0  0  0  0
   -0.9379    8.5713   33.4069 O   0  0  0  0  0  0  0  0  0  0  0  0
    1.7477    7.8216   34.3581 C   0  0  0  0  0  0  0  0  0  0  0  0
    2.7325    6.8837   35.0152 C   0  0  0  0  0  0  0  0  0  0  0  0
    2.4068    9.0826   33.8281 C   0  0  0  0  0  0  0  0  0  0  0  0
   -0.6692   10.3169   34.8010 N   0  0  0  0  0  0  0  0  0  0  0  0
   -0.1343   10.9474   35.9882 C   0  0  0  0  0  0  0  0  0  0  0  0
   -1.3916   11.1937   33.8281 C   0  0  2  0  0  0  0  0  0  0  0  0
   -0.3308   11.8038   32.9059 C   0  0  0  0  0  0  0  0  0  0  0  0
    0.4195   12.6821   33.3053 O   0  0  0  0  0  0  0  0  0  0  0  0
   -2.2446   12.3010   34.4489 C   0  0  0  0  0  0  0  0  0  0  0  0
   -3.0025   13.1228   33.4069 C   0  0  0  0  0  0  0  0  0  0  0  0
   -3.4663   14.4058   33.9697 C   0  0  0  0  0  0  0  0  0  0  0  0
   -4.1482   12.3245   32.8079 C   0  0  0  0  0  0  0  0  0  0  0  0
   -0.2738   11.2878   31.6680 N   0  0  0  0  0  0  0  0  0  0  0  0
    0.7642   11.6611   30.7313 C   0  0  2  0  0  0  0  0  0  0  0  0
    0.4182   12.9409   29.9363 C   0  0  0  0  0  0  0  0  0  0  0  0
    0.4829   13.0067   28.7310 O   0  0  0  0  0  0  0  0  0  0  0  0
    1.0735   10.5146   29.8310 C   0  0  0  0  0  0  0  0  0  0  0  0
    0.0608   13.9776   30.6841 N   0  0  0  0  0  0  0  0  0  0  0  0
   -0.3029   15.2731   30.1142 C   0  0  1  0  0  0  0  0  0  0  0  0
   -1.7693   15.2684   29.6531 C   0  0  0  0  0  0  0  0  0  0  0  0
   -2.6527   15.0080   30.4954 O   0  0  0  0  0  0  0  0  0  0  0  0
   -0.1470   16.3412   31.1270 C   0  0  0  0  0  0  0  0  0  0  0  0
   -2.0697   15.6338   28.3970 N   0  0  0  0  0  0  0  0  0  0  0  0
   -1.0773   15.8738   27.3877 C   0  0  0  0  0  0  0  0  0  0  0  0
   -3.4701   15.8565   28.0194 C   0  0  2  0  0  0  0  0  0  0  0  0
   -3.8858   14.9108   26.8904 C   0  0  0  0  0  0  0  0  0  0  0  0
   -3.5766   15.1884   25.7395 O   0  0  0  0  0  0  0  0  0  0  0  0
   -3.7198   17.2916   27.5838 C   0  0  0  0  0  0  0  0  0  0  0  0
   -3.6222   18.3205   28.7019 C   0  0  0  0  0  0  0  0  0  0  0  0
   -3.4815   19.7195   28.0957 C   0  0  0  0  0  0  0  0  0  0  0  0
   -4.8440   18.2342   29.5950 C   0  0  0  0  0  0  0  0  0  0  0  0
   -4.5842   13.8019   27.1663 N   0  0  0  0  0  0  0  0  0  0  0  0
   -5.0582   13.0428   25.9973 C   0  0  0  0  0  0  0  0  0  0  0  0
   -5.0848   13.3800   28.4841 C   0  0  2  0  0  0  0  0  0  0  0  0
   -5.0354   11.8414   28.5712 C   0  0  0  0  0  0  0  0  0  0  0  0
   -6.1025   11.2156   28.5967 O   0  0  0  0  0  0  0  0  0  0  0  0
   -6.4789   13.9258   28.7491 C   0  0  0  0  0  0  0  0  0  0  0  0
   -7.0189   13.8004   30.1940 C   0  0  0  0  0  0  0  0  0  0  0  0
   -8.4776   13.7439   30.2340 C   0  0  0  0  0  0  0  0  0  0  0  0
   -6.5094   14.8920   31.0690 C   0  0  0  0  0  0  0  0  0  0  0  0
   -3.8314   11.2690   28.5567 N   0  0  0  0  0  0  0  0  0  0  0  0
   -2.5297   11.9888   28.6911 C   0  0  0  0  0  0  0  0  0  0  0  0
   -3.7959    9.8072   28.5422 C   0  0  2  0  0  0  0  0  0  0  0  0
   -3.5614    9.2928   29.9980 C   0  0  0  0  0  0  0  0  0  0  0  0
   -2.4968    9.6598   30.5571 O   0  0  0  0  0  0  0  0  0  0  0  0
   -2.7110    9.1893   27.6092 C   0  0  0  0  0  0  0  0  0  0  0  0
   -2.8035    7.6789   27.6128 C   0  0  0  0  0  0  0  0  0  0  0  0
   -2.8694    9.6849   26.1861 C   0  0  0  0  0  0  0  0  0  0  0  0
  1  2  1  0
  3  1  1  0
  3  4  1  6
  5  4  2  0
  6  3  1  0
  6  7  1  1
  8  6  1  0
  8  9  1  1
 10  8  1  0
 11 10  1  0
 12 11  2  0
 13 12  1  0
 14  4  1  0
 15 14  1  0
 16 15  1  0
 17 16  2  0
 15 18  1  6
 19 18  1  0
 20 16  1  0
 21 20  1  0
 22 20  1  0
 23 22  1  0
 24 23  2  0
 25 23  1  0
 26 25  1  0
 27 25  1  0
 28 27  1  0
 29 28  2  0
 27 30  1  1
 31 30  1  0
 32 31  1  0
 33 31  1  0
 34 28  1  0
 35 34  1  0
 36 35  1  0
 37 36  2  0
 35 38  1  6
 39 38  1  0
 40 38  1  0
 41 36  1  0
 42 41  1  0
 43 41  1  0
 44 43  1  0
 45 44  2  0
 43 46  1  1
 47 46  1  0
 48 47  1  0
 49 47  1  0
 50 44  1  0
 51 50  1  0
 52 51  1  0
 53 52  2  0
 51 54  1  6
 55 52  1  0
 56 55  1  0
 57 56  1  0
 58 57  2  0
 56 59  1  1
 60 57  1  0
 61 60  1  0
 62 60  1  0
 63 62  1  0
 64 63  2  0
 62 65  1  6
 66 65  1  0
 67 66  1  0
 68 66  1  0
 69 63  1  0
 70 69  1  0
 71 69  1  0
 72 71  1  0
 73 72  2  0
 71 74  1  6
 75 74  1  0
 76 75  1  0
 77 75  1  0
 78 72  1  0
 79 78  1  0
 80 78  1  0
 81  1  1  0
 82 81  2  0
 80 83  1  6
 84 83  1  0
 85 83  1  0
 80 81  1  0
M  END
>  <_TriposChargeType>  (133) 
NO_CHARGES

$$$$
KETVAG10
     RDKit          3D

 24 24  0  0  0  0  0  0  0  0999 V2000
   10.5242    3.3439    7.8162 O   0  0  0  0  0  0  0  0  0  0  0  0
    7.7171    1.8077   11.9781 C   0  0  0  0  0  0  0  0  0  0  0  0
   11.4500    2.6031   16.0623 C   0  0  0  0  0  0  0  0  0  0  0  0
    8.0752    1.9917   17.2959 O   0  0  0  0  0  0  0  0  0  0  0  0
    7.3056    0.8053   13.0374 C   0  0  0  0  0  0  0  0  0  0  0  0
   12.5913    2.5452   15.0602 C   0  0  0  0  0  0  0  0  0  0  0  0
    9.5881    4.1167    7.8033 C   0  0  0  0  0  0  0  0  0  0  0  0
    8.2369    0.8295   14.2374 C   0  0  0  0  0  0  0  0  0  0  0  0
   12.5813    3.6617   14.0329 C   0  0  0  0  0  0  0  0  0  0  0  0
    8.4138    3.8628    6.8903 C   0  0  0  0  0  0  0  0  0  0  0  0
    7.8523   -0.0870   15.3743 C   0  0  0  0  0  0  0  0  0  0  0  0
   11.4439    3.6077   13.0298 C   0  0  0  0  0  0  0  0  0  0  0  0
    6.9988    3.9713    7.4546 C   0  0  0  0  0  0  0  0  0  0  0  0
    8.8869   -0.0854   16.4918 C   0  0  0  0  0  0  0  0  0  0  0  0
   11.5643    4.6350   11.9155 C   0  0  0  0  0  0  0  0  0  0  0  0
    6.5930    2.8537    8.3993 C   0  0  0  0  0  0  0  0  0  0  0  0
    8.9984    1.2040   17.2577 C   0  0  0  0  0  0  0  0  0  0  0  0
   10.5098    4.5133   10.8333 C   0  0  0  0  0  0  0  0  0  0  0  0
    7.3337    2.8559    9.7229 C   0  0  0  0  0  0  0  0  0  0  0  0
   10.2719    1.4651   18.0134 C   0  0  0  0  0  0  0  0  0  0  0  0
   10.7145    5.4628    9.6579 C   0  0  0  0  0  0  0  0  0  0  0  0
    6.8571    1.8198   10.7301 C   0  0  0  0  0  0  0  0  0  0  0  0
   11.5141    1.5180   17.1248 C   0  0  0  0  0  0  0  0  0  0  0  0
    9.6220    5.3912    8.6086 C   0  0  0  0  0  0  0  0  0  0  0  0
  1  7  2  0
  2  5  1  0
  3  6  1  0
  4 17  2  0
  5  8  1  0
  6  9  1  0
  7 10  1  0
  8 11  1  0
  9 12  1  0
 10 13  1  0
 11 14  1  0
 12 15  1  0
 13 16  1  0
 14 17  1  0
 15 18  1  0
 16 19  1  0
 17 20  1  0
 18 21  1  0
 19 22  1  0
 20 23  1  0
 21 24  1  0
 22  2  1  0
 23  3  1  0
 24  7  1  0
M  END
>  <_TriposChargeType>  (134) 
NO_CHARGES

$$$$
KEYBOH
     RDKit          3D

 70 74  0  0  0  0  0  0  0  0999 V2000
    2.0685    1.0952    5.5442 O   0  0  0  0  0  0  0  0  0  0  0  0
    3.0760    2.5930    2.2600 O   0  0  0  0  0  0  0  0  0  0  0  0
    7.2975    1.4766    3.9454 O   0  0  0  0  0  0  0  0  0  0  0  0
   -0.7469    3.5917    1.3586 O   0  0  0  0  0  0  0  0  0  0  0  0
   -0.1691    3.2056    6.6563 O   0  0  0  0  0  0  0  0  0  0  0  0
    2.1433    2.0810    7.5776 N   0  0  0  0  0  0  0  0  0  0  0  0
    3.8948    2.6893    4.3721 N   0  0  0  0  0  0  0  0  0  0  0  0
    0.9540    4.2090    2.7355 N   0  0  0  0  0  0  0  0  0  0  0  0
   -1.6471    1.5785    2.9308 N   0  0  0  0  0  0  0  0  0  0  0  0
    2.5708    1.9261    6.2938 C   0  0  0  0  0  0  0  0  0  0  0  0
    0.8885    1.4238    7.9085 C   0  0  0  0  0  0  0  0  0  0  0  0
    2.6828    3.0222    8.5157 C   0  0  0  0  0  0  0  0  0  0  0  0
    1.8372    3.9062    9.1791 C   0  0  0  0  0  0  0  0  0  0  0  0
    2.3585    4.7901   10.1193 C   0  0  0  0  0  0  0  0  0  0  0  0
    3.7256    4.8191   10.3585 C   0  0  0  0  0  0  0  0  0  0  0  0
    4.5660    3.9429    9.7009 C   0  0  0  0  0  0  0  0  0  0  0  0
    4.0477    3.0041    8.8078 C   0  0  0  0  0  0  0  0  0  0  0  0
    3.6257    2.9122    5.7799 C   0  0  0  0  0  0  0  0  0  0  0  0
    2.9780    2.9832    3.4153 C   0  0  0  0  0  0  0  0  0  0  0  0
    4.9646    1.7425    4.0671 C   0  0  0  0  0  0  0  0  0  0  0  0
    6.2914    2.4664    3.9304 C   0  0  0  0  0  0  0  0  0  0  0  0
    8.5956    2.0025    3.7070 C   0  0  0  0  0  0  0  0  0  0  0  0
    1.8267    3.8976    3.8510 C   0  0  0  0  0  0  0  0  0  0  0  0
   -0.0932    3.4159    2.3784 C   0  0  0  0  0  0  0  0  0  0  0  0
    1.4706    5.1951    1.7726 C   0  0  0  0  0  0  0  0  0  0  0  0
    1.8261    6.4630    2.4311 C   0  0  0  0  0  0  0  0  0  0  0  0
    2.1371    7.4734    2.9743 C   0  0  0  0  0  0  0  0  0  0  0  0
   -0.4496    2.2861    3.3594 C   0  0  0  0  0  0  0  0  0  0  0  0
   -1.5522    0.3475    2.1840 C   0  0  0  0  0  0  0  0  0  0  0  0
   -1.6036    0.3692    0.7943 C   0  0  0  0  0  0  0  0  0  0  0  0
   -1.6612   -0.8321    0.0956 C   0  0  0  0  0  0  0  0  0  0  0  0
   -1.6411   -2.0366    0.7787 C   0  0  0  0  0  0  0  0  0  0  0  0
   -1.5381   -2.0507    2.1627 C   0  0  0  0  0  0  0  0  0  0  0  0
   -1.4989   -0.8547    2.8716 C   0  0  0  0  0  0  0  0  0  0  0  0
   -0.3063    2.1603    7.2850 C   0  0  0  0  0  0  0  0  0  0  0  0
   -5.2248    1.0952    4.8745 O   0  0  0  0  0  0  0  0  0  0  0  0
   -6.2324    2.5930    8.1587 O   0  0  0  0  0  0  0  0  0  0  0  0
  -10.4538    1.4766    6.4734 O   0  0  0  0  0  0  0  0  0  0  0  0
   -2.4094    3.5917    9.0601 O   0  0  0  0  0  0  0  0  0  0  0  0
   -2.9873    3.2056    3.7624 O   0  0  0  0  0  0  0  0  0  0  0  0
   -5.2996    2.0810    2.8412 N   0  0  0  0  0  0  0  0  0  0  0  0
   -7.0512    2.6893    6.0466 N   0  0  0  0  0  0  0  0  0  0  0  0
   -4.1103    4.2090    7.6832 N   0  0  0  0  0  0  0  0  0  0  0  0
   -1.5092    1.5785    7.4880 N   0  0  0  0  0  0  0  0  0  0  0  0
   -5.7271    1.9261    4.1250 C   0  0  0  0  0  0  0  0  0  0  0  0
   -4.0448    1.4238    2.5103 C   0  0  0  0  0  0  0  0  0  0  0  0
   -5.8392    3.0222    1.9031 C   0  0  0  0  0  0  0  0  0  0  0  0
   -4.9935    3.9062    1.2396 C   0  0  0  0  0  0  0  0  0  0  0  0
   -5.5148    4.7901    0.2994 C   0  0  0  0  0  0  0  0  0  0  0  0
   -6.8819    4.8191    0.0602 C   0  0  0  0  0  0  0  0  0  0  0  0
   -7.7224    3.9429    0.7179 C   0  0  0  0  0  0  0  0  0  0  0  0
   -7.2041    3.0041    1.6109 C   0  0  0  0  0  0  0  0  0  0  0  0
   -6.7820    2.9122    4.6388 C   0  0  0  0  0  0  0  0  0  0  0  0
   -6.1343    2.9832    7.0035 C   0  0  0  0  0  0  0  0  0  0  0  0
   -8.1209    1.7425    6.3517 C   0  0  0  0  0  0  0  0  0  0  0  0
   -9.4477    2.4664    6.4884 C   0  0  0  0  0  0  0  0  0  0  0  0
  -11.7519    2.0025    6.7118 C   0  0  0  0  0  0  0  0  0  0  0  0
   -4.9830    3.8976    6.5678 C   0  0  0  0  0  0  0  0  0  0  0  0
   -3.0631    3.4159    8.0404 C   0  0  0  0  0  0  0  0  0  0  0  0
   -4.6269    5.1951    8.6461 C   0  0  0  0  0  0  0  0  0  0  0  0
   -4.9824    6.4630    7.9876 C   0  0  0  0  0  0  0  0  0  0  0  0
   -5.2934    7.4734    7.4444 C   0  0  0  0  0  0  0  0  0  0  0  0
   -2.7067    2.2861    7.0593 C   0  0  0  0  0  0  0  0  0  0  0  0
   -1.6041    0.3475    8.2348 C   0  0  0  0  0  0  0  0  0  0  0  0
   -1.5527    0.3692    9.6244 C   0  0  0  0  0  0  0  0  0  0  0  0
   -1.4951   -0.8321   10.3231 C   0  0  0  0  0  0  0  0  0  0  0  0
   -1.5152   -2.0366    9.6400 C   0  0  0  0  0  0  0  0  0  0  0  0
   -1.6182   -2.0507    8.2560 C   0  0  0  0  0  0  0  0  0  0  0  0
   -1.6575   -0.8547    7.5471 C   0  0  0  0  0  0  0  0  0  0  0  0
   -2.8500    2.1603    3.1338 C   0  0  0  0  0  0  0  0  0  0  0  0
  1 10  2  0
  2 19  2  0
  3 21  1  0
  4 24  2  0
  5 35  2  0
  6 10  1  0
  7 18  1  0
  8 23  1  0
  9 28  1  0
 10 18  1  0
 11  6  1  0
 12  6  1  0
 13 12  2  0
 14 13  1  0
 15 14  2  0
 16 15  1  0
 17 12  1  0
 19  7  1  0
 20  7  1  0
 21 20  1  0
 22  3  1  0
 23 19  1  0
 24  8  1  0
 25  8  1  0
 26 25  1  0
 27 26  3  0
 28 24  1  0
 29  9  1  0
 30 29  2  0
 31 30  1  0
 32 31  2  0
 33 32  1  0
 34 29  1  0
 35 11  1  0
 36 45  2  0
 37 54  2  0
 38 56  1  0
 39 59  2  0
 40 70  2  0
 41 45  1  0
 42 53  1  0
 43 58  1  0
 44 35  1  0
 45 53  1  0
 46 41  1  0
 47 41  1  0
 48 47  2  0
 49 48  1  0
 50 49  2  0
 51 50  1  0
 52 47  1  0
 54 42  1  0
 55 42  1  0
 56 55  1  0
 57 38  1  0
 58 54  1  0
 59 43  1  0
 60 43  1  0
 61 60  1  0
 62 61  3  0
 63 44  1  0
 64 44  1  0
 65 64  2  0
 66 65  1  0
 67 66  2  0
 68 67  1  0
 69 64  1  0
 70  9  1  0
 16 17  2  0
 33 34  2  0
 46 70  1  0
 51 52  2  0
 59 63  1  0
 68 69  2  0
M  END
>  <_TriposChargeType>  (135) 
NO_CHARGES

$$$$
KICVUN
     RDKit          3D

 22 23  0  0  0  0  0  0  0  0999 V2000
    3.6504   11.3128    3.5318 O   0  0  0  0  0  0  0  0  0  0  0  0
    2.2451   11.0899    5.2582 O   0  0  0  0  0  0  0  0  0  0  0  0
    5.4656   11.4952    9.2096 O   0  0  0  0  0  0  0  0  0  0  0  0
    8.0389   10.2480    9.3010 O   0  0  0  0  0  0  0  0  0  0  0  0
    3.3722   11.2208    4.8385 C   0  0  0  0  0  0  0  0  0  0  0  0
    4.5867   11.2598    5.6716 C   0  0  0  0  0  0  0  0  0  0  0  0
    4.5072   11.1304    6.9679 C   0  0  0  0  0  0  0  0  0  0  0  0
    5.6752   11.0291    7.8488 C   0  0  2  0  0  0  0  0  0  0  0  0
    5.6371   10.0811    8.9810 C   0  0  1  0  0  0  0  0  0  0  0  0
    6.8976    9.4404    9.5586 C   0  0  1  0  0  0  0  0  0  0  0  0
    7.1310    8.0668    9.0267 C   0  0  0  0  0  0  0  0  0  0  0  0
    7.4211    7.9670    7.5247 C   0  0  0  0  0  0  0  0  0  0  0  0
    6.2220    7.6240    6.7062 C   0  0  0  0  0  0  0  0  0  0  0  0
    6.5053    7.4166    5.2228 C   0  0  0  0  0  0  0  0  0  0  0  0
    5.2726    7.1812    4.4147 C   0  0  0  0  0  0  0  0  0  0  0  0
    5.5730    7.0300    2.9272 C   0  0  0  0  0  0  0  0  0  0  0  0
    4.3096    6.9146    2.0733 C   0  0  0  0  0  0  0  0  0  0  0  0
    3.4443    8.1666    2.0443 C   0  0  0  0  0  0  0  0  0  0  0  0
    4.1268    9.3998    1.4522 C   0  0  0  0  0  0  0  0  0  0  0  0
    3.1944   10.6128    1.2943 C   0  0  0  0  0  0  0  0  0  0  0  0
    2.5454   11.0743    2.5844 C   0  0  2  0  0  0  0  0  0  0  0  0
    1.7744   12.3715    2.4286 C   0  0  0  0  0  0  0  0  0  0  0  0
  1  5  1  0
  2  5  2  0
  8  3  1  0
 10  4  1  6
  5  6  1  0
  6  7  2  0
  8  7  1  6
  8  9  1  0
  9  3  1  1
 10  9  1  0
 11 10  1  0
 12 11  1  0
 13 12  1  0
 14 13  1  0
 15 14  1  0
 16 15  1  0
 17 16  1  0
 18 17  1  0
 19 18  1  0
 20 19  1  0
 21  1  1  0
 21 22  1  6
 20 21  1  0
M  END
>  <_TriposChargeType>  (136) 
NO_CHARGES

$$$$
KIHWII
     RDKit          3D

 12 12  0  0  0  0  0  0  0  0999 V2000
    4.8652    0.0274    3.3165 N   0  0  0  0  0  0  0  0  0  0  0  0
    3.6253   -1.3642    5.3946 O   0  0  0  0  0  0  0  0  0  0  0  0
    5.4535    0.6640    5.9641 O   0  0  0  0  0  0  0  0  0  0  0  0
    7.4762    0.6745    4.0880 O   0  0  0  0  0  0  0  0  0  0  0  0
    3.3895    0.1582    3.5084 C   0  0  0  0  0  0  0  0  0  0  0  0
    2.8774   -1.0759    4.2172 C   0  0  0  0  0  0  0  0  0  0  0  0
    3.4305   -0.4485    6.4805 C   0  0  0  0  0  0  0  0  0  0  0  0
    4.7730   -0.0234    7.0113 C   0  0  0  0  0  0  0  0  0  0  0  0
    6.7682    1.0749    6.3339 C   0  0  0  0  0  0  0  0  0  0  0  0
    7.4129    1.6779    5.1125 C   0  0  0  0  0  0  0  0  0  0  0  0
    7.0196    1.0824    2.8014 C   0  0  0  0  0  0  0  0  0  0  0  0
    5.5126    1.2556    2.7764 C   0  0  0  0  0  0  0  0  0  0  0  0
  2  6  1  0
  3  8  1  0
  4 10  1  0
  5  1  1  0
  6  5  1  0
  7  2  1  0
  8  7  1  0
  9  3  1  0
 10  9  1  0
 11  4  1  0
 12  1  1  0
 11 12  1  0
M  CHG  1   1   1
M  END
>  <_TriposChargeType>  (137) 
USER_CHARGES

$$$$
KIVDIC
     RDKit          3D

 38 40  0  0  0  0  0  0  0  0999 V2000
   -3.1016    6.9409    9.1810 N   0  0  0  0  0  0  0  0  0  0  0  0
   -2.8850    6.4147   10.5201 C   0  0  1  0  0  0  0  0  0  0  0  0
   -1.4264    6.5377   10.9866 C   0  0  0  0  0  0  0  0  0  0  0  0
   -0.4855    5.9076    9.9682 C   0  0  0  0  0  0  0  0  0  0  0  0
   -1.2313    5.8534   12.3244 C   0  0  0  0  0  0  0  0  0  0  0  0
   -3.8519    7.1137   11.5041 C   0  0  0  0  0  0  0  0  0  0  0  0
   -3.4167    7.9418   12.2790 O   0  0  0  0  0  0  0  0  0  0  0  0
   -5.1402    6.8085   11.4670 N   0  0  0  0  0  0  0  0  0  0  0  0
   -5.8284    6.0509   10.4059 C   0  0  1  0  0  0  0  0  0  0  0  0
   -7.1810    5.7156   11.0857 C   0  0  0  0  0  0  0  0  0  0  0  0
   -7.4218    6.9070   12.0092 C   0  0  0  0  0  0  0  0  0  0  0  0
   -6.0535    7.3353   12.4758 C   0  0  0  0  0  0  0  0  0  0  0  0
   -6.1188    6.9217    9.1920 C   0  0  0  0  0  0  0  0  0  0  0  0
   -6.1419    8.1343    9.2539 O   0  0  0  0  0  0  0  0  0  0  0  0
   -6.4391    6.2453    8.0772 N   0  0  0  0  0  0  0  0  0  0  0  0
   -7.0282    6.9710    6.9707 C   0  0  2  0  0  0  0  0  0  0  0  0
   -8.4878    7.3500    7.2749 C   0  0  0  0  0  0  0  0  0  0  0  0
   -3.1590    6.1808    8.0772 C   0  0  0  0  0  0  0  0  0  0  0  0
   -3.1814    4.9550    8.0965 O   0  0  0  0  0  0  0  0  0  0  0  0
   -6.9765    6.1808    5.6853 C   0  0  0  0  0  0  0  0  0  0  0  0
   -3.1073    6.9710    6.7918 C   0  0  2  0  0  0  0  0  0  0  0  0
   -7.0339    6.9409    4.5816 N   0  0  0  0  0  0  0  0  0  0  0  0
   -6.9541    4.9550    5.6660 O   0  0  0  0  0  0  0  0  0  0  0  0
   -3.6964    6.2453    5.6853 N   0  0  0  0  0  0  0  0  0  0  0  0
   -1.6477    7.3500    6.4877 C   0  0  0  0  0  0  0  0  0  0  0  0
   -7.2505    6.4147    3.2425 C   0  0  1  0  0  0  0  0  0  0  0  0
   -4.0167    6.9217    4.5705 C   0  0  0  0  0  0  0  0  0  0  0  0
   -8.7091    6.5377    2.7759 C   0  0  0  0  0  0  0  0  0  0  0  0
   -6.2836    7.1137    2.2584 C   0  0  0  0  0  0  0  0  0  0  0  0
   -4.3071    6.0509    3.3567 C   0  0  1  0  0  0  0  0  0  0  0  0
   -3.9936    8.1343    4.5086 O   0  0  0  0  0  0  0  0  0  0  0  0
   -9.6500    5.9076    3.7943 C   0  0  0  0  0  0  0  0  0  0  0  0
   -8.9042    5.8534    1.4382 C   0  0  0  0  0  0  0  0  0  0  0  0
   -6.7188    7.9418    1.4836 O   0  0  0  0  0  0  0  0  0  0  0  0
   -4.9953    6.8085    2.2956 N   0  0  0  0  0  0  0  0  0  0  0  0
   -2.9546    5.7156    2.6768 C   0  0  0  0  0  0  0  0  0  0  0  0
   -4.0820    7.3353    1.2868 C   0  0  0  0  0  0  0  0  0  0  0  0
   -2.7137    6.9070    1.7533 C   0  0  0  0  0  0  0  0  0  0  0  0
  1  2  1  0
  2  3  1  1
  3  4  1  0
  5  3  1  0
  6  2  1  0
  7  6  2  0
  8  6  1  0
  9  8  1  0
  9 10  1  1
 11 10  1  0
 12  8  1  0
 13  9  1  0
 14 13  2  0
 15 13  1  0
 16 15  1  0
 16 17  1  1
 18  1  1  0
 19 18  2  0
 20 16  1  0
 21 18  1  0
 22 20  1  0
 23 20  2  0
 24 21  1  0
 21 25  1  6
 26 22  1  0
 27 24  1  0
 26 28  1  6
 29 26  1  0
 30 27  1  0
 31 27  2  0
 32 28  1  0
 33 28  1  0
 34 29  2  0
 35 29  1  0
 30 36  1  6
 37 35  1  0
 38 36  1  0
 11 12  1  0
 30 35  1  0
 37 38  1  0
M  END
>  <_TriposChargeType>  (138) 
NO_CHARGES

$$$$
KUFPUW
     RDKit          3D

 31 32  0  0  0  0  0  0  0  0999 V2000
    3.4702    9.6854    0.3557 C   0  0  0  0  0  1  0  0  0  0  0  0
    4.3758    9.0305    1.3655 C   0  0  0  0  0  0  0  0  0  0  0  0
    4.8592    9.6308    2.2964 O   0  0  0  0  0  0  0  0  0  0  0  0
    4.5878    7.7099    1.1372 N   0  0  0  0  0  0  0  0  0  0  0  0
    5.5387    6.9616    1.9517 C   0  0  0  0  0  3  0  0  0  0  0  0
    6.8297    6.7762    1.1987 C   0  0  0  0  0  2  0  0  0  0  0  0
    4.9539    5.6131    2.3623 C   0  0  0  0  0  0  0  0  0  0  0  0
    8.1342    6.1146    2.2876 S   0  0  0  0  0  0  0  0  0  0  0  0
    3.9921    5.6131    3.2997 N   0  0  0  0  0  0  0  0  0  0  0  0
    3.2599    6.7535    3.8639 C   0  0  0  0  0  2  0  0  0  0  0  0
    3.4836    4.3285    3.7958 C   0  0  0  0  0  3  0  0  0  0  0  0
    2.3752    4.7127    4.7772 C   0  0  0  0  0  2  0  0  0  0  0  0
    4.5618    3.5015    4.4501 C   0  0  0  0  0  0  0  0  0  0  0  0
    4.4613    2.2503    4.4632 O   0  0  0  0  0  0  0  0  0  0  0  0
    2.6927    6.1613    5.1570 C   0  0  0  0  0  2  0  0  0  0  0  0
    5.5948    4.1111    5.0516 N   0  0  0  0  0  0  0  0  0  0  0  0
    6.6295    3.3454    5.6971 C   0  0  0  0  0  3  0  0  0  0  0  0
    7.4338    4.2325    6.6762 C   0  0  0  0  0  3  0  0  0  0  0  0
    7.5126    2.6264    4.6652 C   0  0  0  0  0  0  0  0  0  0  0  0
    8.2021    1.6607    4.9945 O   0  0  0  0  0  0  0  0  0  0  0  0
    8.4903    3.4148    7.4402 C   0  0  0  0  0  1  0  0  0  0  0  0
    6.4946    4.8781    7.6729 C   0  0  0  0  0  1  0  0  0  0  0  0
    7.4522    3.0746    3.3963 N   0  0  0  0  0  0  0  0  0  0  0  0
    8.1292    2.3797    2.3227 C   0  0  0  0  0  3  0  0  0  0  0  0
    8.1585    3.2614    1.0670 C   0  0  0  0  0  2  0  0  0  0  0  0
    7.4556    1.0605    1.9166 C   0  0  0  0  0  0  0  0  0  0  0  0
    8.0781    0.2815    1.2097 O   0  0  0  0  0  0  0  0  0  0  0  0
    9.1672    4.7754    1.1482 S   0  0  0  0  0  0  0  0  0  0  0  0
    6.2198    0.8457    2.3359 N   0  0  0  0  0  0  0  0  0  0  0  0
    5.4700   -0.3188    1.9473 C   0  0  0  0  0  1  0  0  0  0  0  0
    5.3561    4.5553    1.8924 O   0  0  0  0  0  0  0  0  0  0  0  0
  1  2  1  0
  2  3  2  0
  4  2  1  0
  5  4  1  0
  6  5  1  0
  7  5  1  0
  8  6  1  0
  9  7  1  0
 10  9  1  0
 11  9  1  0
 12 11  1  0
 13 11  1  0
 14 13  2  0
 15 10  1  0
 16 13  1  0
 17 16  1  0
 18 17  1  0
 19 17  1  0
 20 19  2  0
 21 18  1  0
 22 18  1  0
 23 19  1  0
 24 23  1  0
 25 24  1  0
 26 24  1  0
 27 26  2  0
 28  8  1  0
 29 26  1  0
 30 29  1  0
 31  7  2  0
 12 15  1  0
 25 28  1  0
M  RAD  8   1   2   5   2   6   3  10   3  11   2  12   3  15   3  17   2
M  CHG  4   4  -1  16  -1  23  -1  29  -1
M  RAD  6  18   2  21   2  22   2  24   2  25   3  30   2
M  END
>  <_TriposChargeType>  (139) 
NO_CHARGES

$$$$
LENPEA
     RDKit          3D

 40 42  0  0  0  0  0  0  0  0999 V2000
    3.9436    4.4792    2.0872 O   0  0  0  0  0  0  0  0  0  0  0  0
    6.9868    3.6676    0.4759 N   0  0  0  0  0  0  0  0  0  0  0  0
    5.1459    4.3936    1.8683 C   0  0  0  0  0  0  0  0  0  0  0  0
    6.0913    4.7846    2.7181 N   0  0  0  0  0  0  0  0  0  0  0  0
    9.4717    2.2707   -1.6157 O   0  0  0  0  0  0  0  0  0  0  0  0
    5.6692    3.8098    0.5807 C   0  0  0  0  0  0  0  0  0  0  0  0
    9.6608    3.5453    0.2400 N   0  0  0  0  0  0  0  0  0  0  0  0
    4.7843    3.4417   -0.4221 C   0  0  0  0  0  0  0  0  0  0  0  0
    6.1280    4.8987    6.4151 N   0  0  0  0  0  0  0  0  0  0  0  0
    5.2984    2.8716   -1.5693 C   0  0  0  0  0  0  0  0  0  0  0  0
   12.7136    1.8924    1.5556 N   0  0  0  0  0  0  0  0  0  0  0  0
    6.6586    2.7020   -1.6863 C   0  0  0  0  0  0  0  0  0  0  0  0
    7.4708    3.1259   -0.6468 C   0  0  0  0  0  0  0  0  0  0  0  0
    8.9647    2.9465   -0.7292 C   0  0  0  0  0  0  0  0  0  0  0  0
   11.0770    3.3119    0.4292 C   0  0  0  0  0  0  0  0  0  0  0  0
   11.3012    2.1909    1.4188 C   0  0  0  0  0  0  0  0  0  0  0  0
   12.9736    0.8841    2.5691 C   0  0  0  0  0  0  0  0  0  0  0  0
    5.8161    5.3191    4.0347 C   0  0  0  0  0  0  0  0  0  0  0  0
    6.1849    4.3044    5.0904 C   0  0  0  0  0  0  0  0  0  0  0  0
   14.4641    0.6481    2.6871 C   0  0  0  0  0  0  0  0  0  0  0  0
   16.9820    0.1243    8.0834 O   0  0  0  0  0  0  0  0  0  0  0  0
   13.9388    0.9359    9.6947 N   0  0  0  0  0  0  0  0  0  0  0  0
   15.7797    0.2099    8.3022 C   0  0  0  0  0  0  0  0  0  0  0  0
   14.8343   -0.1811    7.4525 N   0  0  0  0  0  0  0  0  0  0  0  0
   11.4539    2.3328   11.7862 O   0  0  0  0  0  0  0  0  0  0  0  0
   15.2564    0.7938    9.5898 C   0  0  0  0  0  0  0  0  0  0  0  0
   11.2648    1.0582    9.9305 N   0  0  0  0  0  0  0  0  0  0  0  0
   16.1414    1.1618   10.5926 C   0  0  0  0  0  0  0  0  0  0  0  0
   14.7976   -0.2951    3.7555 N   0  0  0  0  0  0  0  0  0  0  0  0
   15.6272    1.7320   11.7399 C   0  0  0  0  0  0  0  0  0  0  0  0
    8.2120    2.7111    8.6150 N   0  0  0  0  0  0  0  0  0  0  0  0
   14.2670    1.9015   11.8568 C   0  0  0  0  0  0  0  0  0  0  0  0
   13.4548    1.4777   10.8174 C   0  0  0  0  0  0  0  0  0  0  0  0
   11.9609    1.6570   10.8998 C   0  0  0  0  0  0  0  0  0  0  0  0
    9.8486    1.2917    9.7414 C   0  0  0  0  0  0  0  0  0  0  0  0
    9.6244    2.4126    8.7518 C   0  0  0  0  0  0  0  0  0  0  0  0
    7.9520    3.7195    7.6015 C   0  0  0  0  0  0  0  0  0  0  0  0
   15.1095   -0.7155    6.1359 C   0  0  0  0  0  0  0  0  0  0  0  0
   14.7407    0.2992    5.0802 C   0  0  0  0  0  0  0  0  0  0  0  0
    6.4615    3.9555    7.4835 C   0  0  0  0  0  0  0  0  0  0  0  0
  1  3  2  0
  2  6  2  0
  3  4  1  0
  5 14  2  0
  6  3  1  0
  8  6  1  0
 10  8  2  0
 12 10  1  0
 13  2  1  0
 14  7  1  0
 15  7  1  0
 16 11  1  0
 17 11  1  0
 18  4  1  0
 19  9  1  0
 20 17  1  0
 21 23  2  0
 22 26  2  0
 23 24  1  0
 25 34  2  0
 26 23  1  0
 28 26  1  0
 29 20  1  0
 30 28  2  0
 32 30  1  0
 33 22  1  0
 34 27  1  0
 35 27  1  0
 36 31  1  0
 37 31  1  0
 38 24  1  0
 39 29  1  0
 40  9  1  0
 12 13  2  0
 13 14  1  0
 15 16  1  0
 18 19  1  0
 32 33  2  0
 33 34  1  0
 35 36  1  0
 37 40  1  0
 38 39  1  0
M  END
>  <_TriposChargeType>  (140) 
NO_CHARGES

$$$$
MOSFEG
     RDKit          3D

 27 28  0  0  0  0  0  0  0  0999 V2000
    7.2167    4.0376    4.5892 C   0  0  0  0  0  0  0  0  0  0  0  0
    6.7894    5.2434    4.0365 C   0  0  0  0  0  0  0  0  0  0  0  0
    5.9609    5.2422    2.9197 C   0  0  0  0  0  0  0  0  0  0  0  0
    5.5638    4.0376    2.3598 C   0  0  0  0  0  0  0  0  0  0  0  0
    7.4499    6.8847    5.8037 C   0  0  0  0  0  0  0  0  0  0  0  0
    6.8584    6.6274    8.1525 C   0  0  0  0  0  0  0  0  0  0  0  0
    5.9864    7.8511    8.4257 C   0  0  0  0  0  0  0  0  0  0  0  0
    4.5175    7.6300    8.1656 C   0  0  0  0  0  0  0  0  0  0  0  0
    2.6551    6.4146    8.9395 C   0  0  0  0  0  0  0  0  0  0  0  0
    2.2653    5.2169    9.7500 C   0  0  0  0  0  0  0  0  0  0  0  0
    7.2971    6.4761    4.5082 N   0  0  0  0  0  0  0  0  0  0  0  0
    6.8212    6.1830    6.7630 N   0  0  0  0  0  0  0  0  0  0  0  0
    8.1268    7.8946    6.0600 O   0  0  0  0  0  0  0  0  0  0  0  0
    4.0654    6.5559    8.9769 O   0  0  0  0  0  0  0  0  0  0  0  0
    2.6536    4.0376    9.0532 O   0  0  0  0  0  0  0  0  0  0  0  0
    6.7894    2.8318    4.0365 C   0  0  0  0  0  0  0  0  0  0  0  0
    5.9609    2.8329    2.9197 C   0  0  0  0  0  0  0  0  0  0  0  0
    7.4499    1.1904    5.8037 C   0  0  0  0  0  0  0  0  0  0  0  0
    6.8584    1.4477    8.1525 C   0  0  0  0  0  0  0  0  0  0  0  0
    5.9864    0.2240    8.4257 C   0  0  0  0  0  0  0  0  0  0  0  0
    4.5175    0.4451    8.1656 C   0  0  0  0  0  0  0  0  0  0  0  0
    2.6551    1.6606    8.9395 C   0  0  0  0  0  0  0  0  0  0  0  0
    2.2653    2.8583    9.7500 C   0  0  0  0  0  0  0  0  0  0  0  0
    7.2971    1.5990    4.5082 N   0  0  0  0  0  0  0  0  0  0  0  0
    6.8212    1.8922    6.7630 N   0  0  0  0  0  0  0  0  0  0  0  0
    8.1268    0.1806    6.0600 O   0  0  0  0  0  0  0  0  0  0  0  0
    4.0654    1.5193    8.9769 O   0  0  0  0  0  0  0  0  0  0  0  0
  2  1  2  0
  3  2  1  0
  4  3  2  0
  5 11  1  0
  7  6  1  0
  8  7  1  0
 10  9  1  0
 11  2  1  0
 12  5  1  0
 13  5  2  0
 14  8  1  0
 15 10  1  0
 16  1  1  0
 17  4  1  0
 18 24  1  0
 20 19  1  0
 21 20  1  0
 23 15  1  0
 24 16  1  0
 25 18  1  0
 26 18  2  0
 27 21  1  0
  6 12  1  0
  9 14  1  0
 16 17  2  0
 19 25  1  0
 22 23  1  0
 22 27  1  0
M  END
>  <_TriposChargeType>  (141) 
NO_CHARGES

$$$$
MUCYIT
     RDKit          3D

 32 33  0  0  0  0  0  0  0  0999 V2000
    0.5049    0.2014   11.2159 O   0  0  0  0  0  0  0  0  0  0  0  0
    2.4855   -2.0725    7.4955 O   0  0  0  0  0  0  0  0  0  0  0  0
    4.9162   -2.8722    5.2964 O   0  0  0  0  0  0  0  0  0  0  0  0
    4.9802    1.8037    5.1550 O   0  0  0  0  0  0  0  0  0  0  0  0
    2.5984    1.7894    8.4903 O   0  0  0  0  0  0  0  0  0  0  0  0
    1.2548   -0.8681    9.3601 N   0  0  0  0  0  0  0  0  0  0  0  0
    4.1213   -2.9510    8.7501 N   0  0  0  0  0  0  0  0  0  0  0  0
    5.4306   -1.3487    6.8585 N   0  0  0  0  0  0  0  0  0  0  0  0
    3.4527    0.4379    6.1037 N   0  0  0  0  0  0  0  0  0  0  0  0
    0.5475    1.1939    7.7523 N   0  0  0  0  0  0  0  0  0  0  0  0
   -0.1088    1.1445    9.0656 C   0  0  2  0  0  0  0  0  0  0  0  0
    0.6012    0.1149    9.9875 C   0  0  0  0  0  0  0  0  0  0  0  0
    2.2449   -1.8037    9.8928 C   0  0  0  0  0  0  0  0  0  0  0  0
    2.9713   -2.2900    8.6099 C   0  0  0  0  0  0  0  0  0  0  0  0
    4.7734   -3.5902    7.5911 C   0  0  0  0  0  0  0  0  0  0  0  0
    5.0226   -2.5635    6.4811 C   0  0  0  0  0  0  0  0  0  0  0  0
    5.7578   -0.3011    5.9226 C   0  0  0  0  0  0  0  0  0  0  0  0
    4.6899    0.7437    5.6960 C   0  0  0  0  0  0  0  0  0  0  0  0
    2.3583    1.3858    6.1399 C   0  0  0  0  0  0  0  0  0  0  0  0
    1.8454    1.4826    7.5759 C   0  0  0  0  0  0  0  0  0  0  0  0
   -1.5495    0.6848    8.8296 C   0  0  0  0  0  0  0  0  0  0  0  0
   -0.0738    2.5065    9.7912 C   0  0  0  0  0  0  0  0  0  0  0  0
   -0.6991    3.6558    9.0516 C   0  0  0  0  0  0  0  0  0  0  0  0
   -0.0193    4.3444    8.0725 C   0  0  0  0  0  0  0  0  0  0  0  0
   -0.5757    5.4433    7.4392 C   0  0  0  0  0  0  0  0  0  0  0  0
   -1.8369    5.8631    7.7909 C   0  0  0  0  0  0  0  0  0  0  0  0
   -2.5149    5.2059    8.7688 C   0  0  0  0  0  0  0  0  0  0  0  0
   -1.9680    4.1041    9.3916 C   0  0  0  0  0  0  0  0  0  0  0  0
    3.1996   -1.0999   10.8428 C   0  0  0  0  0  0  0  0  0  0  0  0
    1.5712   -2.9881   10.5705 C   0  0  0  0  0  0  0  0  0  0  0  0
    6.1559   -4.1060    8.0328 C   0  0  0  0  0  0  0  0  0  0  0  0
    3.9314   -4.7518    7.0735 C   0  0  0  0  0  0  0  0  0  0  0  0
  1 12  2  0
  2 14  2  0
  3 16  2  0
  4 18  2  0
  5 20  2  0
 11 10  1  0
 12  6  1  0
 13  6  1  0
 14  7  1  0
 15  7  1  0
 16  8  1  0
 17  8  1  0
 18  9  1  0
 19  9  1  0
 20 10  1  0
 11 21  1  6
 22 11  1  0
 23 22  1  0
 24 23  2  0
 25 24  1  0
 26 25  2  0
 27 26  1  0
 28 23  1  0
 29 13  1  0
 30 13  1  0
 31 15  1  0
 32 15  1  0
 11 12  1  0
 13 14  1  0
 15 16  1  0
 17 18  1  0
 19 20  1  0
 27 28  2  0
M  END
>  <_TriposChargeType>  (142) 
NO_CHARGES

$$$$
MUZZEM
     RDKit          3D

 30 32  0  0  0  0  0  0  0  0999 V2000
   15.4297    3.9201    5.7222 O   0  0  0  0  0  0  0  0  0  0  0  0
   14.9331    5.8878    7.7566 O   0  0  0  0  0  0  0  0  0  0  0  0
   13.5089    2.2247    5.1816 N   0  0  0  0  0  0  0  0  0  0  0  0
   14.0493    2.9237    4.1231 C   0  0  0  0  0  0  0  0  0  0  0  0
   13.6093    2.8112    2.8068 C   0  0  0  0  0  0  0  0  0  0  0  0
   14.2027    3.5548    1.7893 C   0  0  0  0  0  0  0  0  0  0  0  0
   15.2306    4.4192    2.0631 C   0  0  0  0  0  0  0  0  0  0  0  0
   15.6888    4.5582    3.3747 C   0  0  0  0  0  0  0  0  0  0  0  0
   15.0972    3.8346    4.3876 C   0  0  0  0  0  0  0  0  0  0  0  0
   16.3526    4.9369    6.1224 C   0  0  0  0  0  0  0  0  0  0  0  0
   16.1541    5.1828    7.5850 C   0  0  0  0  0  0  0  0  0  0  0  0
   14.6755    6.2568    9.1051 C   0  0  0  0  0  0  0  0  0  0  0  0
   13.3539    6.9753    9.1455 C   0  0  0  0  0  0  0  0  0  0  0  0
   12.9491    7.4549   10.5287 C   0  0  0  0  0  0  0  0  0  0  0  0
   12.4717    1.2283    5.0115 C   0  0  0  0  0  0  0  0  0  0  0  0
   11.0716    1.8399    5.0302 C   0  0  0  0  0  0  0  0  0  0  0  0
   10.6667    2.3195    6.4134 C   0  0  0  0  0  0  0  0  0  0  0  0
    9.3452    3.0380    6.4538 C   0  0  0  0  0  0  0  0  0  0  0  0
    9.0876    3.4070    7.8023 O   0  0  0  0  0  0  0  0  0  0  0  0
    7.8665    4.1120    7.9739 C   0  0  0  0  0  0  0  0  0  0  0  0
    7.6681    4.3579    9.4365 C   0  0  0  0  0  0  0  0  0  0  0  0
    8.5910    5.3747    9.8366 O   0  0  0  0  0  0  0  0  0  0  0  0
    8.9234    5.4602   11.1713 C   0  0  0  0  0  0  0  0  0  0  0  0
    9.9714    6.3711   11.4358 C   0  0  0  0  0  0  0  0  0  0  0  0
   10.5118    7.0701   10.3773 N   0  0  0  0  0  0  0  0  0  0  0  0
   11.5490    8.0665   10.5474 C   0  0  0  0  0  0  0  0  0  0  0  0
   10.4113    6.4836   12.7521 C   0  0  0  0  0  0  0  0  0  0  0  0
    9.8179    5.7400   13.7696 C   0  0  0  0  0  0  0  0  0  0  0  0
    8.7900    4.8756   13.4958 C   0  0  0  0  0  0  0  0  0  0  0  0
    8.3318    4.7366   12.1842 C   0  0  0  0  0  0  0  0  0  0  0  0
  1  9  1  0
  2 11  1  0
  3  4  1  0
  4  5  2  0
  5  6  1  0
  6  7  2  0
  7  8  1  0
  8  9  2  0
  9  4  1  0
 10  1  1  0
 11 10  1  0
 12  2  1  0
 13 12  1  0
 14 13  1  0
 15  3  1  0
 16 15  1  0
 17 16  1  0
 18 17  1  0
 19 18  1  0
 20 19  1  0
 21 20  1  0
 22 21  1  0
 23 22  1  0
 24 23  2  0
 25 24  1  0
 26 14  1  0
 27 24  1  0
 28 27  2  0
 29 28  1  0
 30 23  1  0
 25 26  1  0
 29 30  2  0
M  END
>  <_TriposChargeType>  (143) 
NO_CHARGES

$$$$
NAFJEJ
     RDKit          3D

 36 38  0  0  0  0  0  0  0  0999 V2000
    2.7138    9.5611    6.6141 C   0  0  0  0  0  0  0  0  0  0  0  0
    3.6365   10.4839    6.2571 N   0  0  0  0  0  0  0  0  0  0  0  0
    3.2233   11.8946    6.1192 C   0  0  2  0  0  0  0  0  0  0  0  0
    3.5723   12.4091    4.7236 C   0  0  0  0  0  0  0  0  0  0  0  0
    2.9676   11.8774    3.6539 N   0  0  0  0  0  0  0  0  0  0  0  0
    1.8945   10.9135    3.7256 C   0  0  0  0  0  0  0  0  0  0  0  0
    2.3668    9.4696    3.6519 C   0  0  0  0  0  0  0  0  0  0  0  0
    1.4261    8.5401    3.9838 N   0  0  0  0  0  0  0  0  0  0  0  0
    1.8062    7.1479    4.1314 C   0  0  0  0  0  0  0  0  0  0  0  0
    1.4452    6.6215    5.5126 C   0  0  0  0  0  0  0  0  0  0  0  0
    2.0289    7.1824    6.5885 N   0  0  0  0  0  0  0  0  0  0  0  0
    3.1471    8.0973    6.5045 C   0  0  0  0  0  0  0  0  0  0  0  0
    5.0275   10.1458    5.9040 C   0  0  0  0  0  0  0  0  0  0  0  0
    6.0104   10.0914    7.0557 C   0  0  0  0  0  0  0  0  0  0  0  0
    5.6554    9.8713    8.3632 C   0  0  0  0  0  0  0  0  0  0  0  0
    6.6091    9.8103    9.3674 C   0  0  0  0  0  0  0  0  0  0  0  0
    7.9349    9.9522    9.0354 C   0  0  0  0  0  0  0  0  0  0  0  0
    8.3030   10.1723    7.7607 C   0  0  0  0  0  0  0  0  0  0  0  0
    7.3553   10.2333    6.7483 C   0  0  0  0  0  0  0  0  0  0  0  0
    3.8301   12.7896    7.2012 C   0  0  0  0  0  0  0  0  0  0  0  0
    3.2664   12.5470    8.5866 C   0  0  0  0  0  0  0  0  0  0  0  0
    1.8574   13.1025    8.7526 C   0  0  0  0  0  0  0  0  0  0  0  0
    4.2122   13.1025    9.6522 C   0  0  0  0  0  0  0  0  0  0  0  0
    3.3487   12.3375    2.3239 C   0  0  0  0  0  0  0  0  0  0  0  0
    0.0201    8.8689    4.2380 C   0  0  0  0  0  0  0  0  0  0  0  0
    1.5665    6.8191    7.9308 C   0  0  0  0  0  0  0  0  0  0  0  0
    2.4591    5.8141    8.6214 C   0  0  0  0  0  0  0  0  0  0  0  0
    2.9004    4.6499    7.9718 C   0  0  0  0  0  0  0  0  0  0  0  0
    3.7067    3.7231    8.6009 C   0  0  0  0  0  0  0  0  0  0  0  0
    4.1109    3.9180    9.8961 C   0  0  0  0  0  0  0  0  0  0  0  0
    3.7318    5.0490   10.5395 C   0  0  0  0  0  0  0  0  0  0  0  0
    2.9235    6.0156    9.9248 C   0  0  0  0  0  0  0  0  0  0  0  0
    1.5886    9.8620    6.9764 O   0  0  0  0  0  0  0  0  0  0  0  0
    4.4208   13.2789    4.5843 O   0  0  0  0  0  0  0  0  0  0  0  0
    3.5041    9.1739    3.3584 O   0  0  0  0  0  0  0  0  0  0  0  0
    0.6148    5.7266    5.6130 O   0  0  0  0  0  0  0  0  0  0  0  0
  1  2  1  0
  2  3  1  0
  4  3  1  0
  5  4  1  0
  6  5  1  0
  7  6  1  0
  8  7  1  0
  9  8  1  0
 10  9  1  0
 11 10  1  0
 12  1  1  0
 13  2  1  0
 14 13  1  0
 15 14  2  0
 16 15  1  0
 17 16  2  0
 18 17  1  0
 19 14  1  0
  3 20  1  1
 21 20  1  0
 22 21  1  0
 23 21  1  0
 24  5  1  0
 25  8  1  0
 26 11  1  0
 27 26  1  0
 28 27  2  0
 29 28  1  0
 30 29  2  0
 31 30  1  0
 32 27  1  0
 33  1  2  0
 34  4  2  0
 35  7  2  0
 36 10  2  0
 11 12  1  0
 18 19  2  0
 31 32  2  0
M  END
>  <_TriposChargeType>  (144) 
NO_CHARGES

$$$$
NAWLUT
     RDKit          3D

 18 19  0  0  0  0  0  0  0  0999 V2000
    0.8786    3.7034    4.4234 O   0  0  0  0  0  0  0  0  0  0  0  0
    1.4098    5.6595    3.4359 O   0  0  0  0  0  0  0  0  0  0  0  0
    3.7624    5.9423    5.3733 O   0  0  0  0  0  0  0  0  0  0  0  0
    4.5775    7.0163    3.5468 N   0  0  0  0  0  0  0  0  0  0  0  0
    2.9624    3.8979    3.2796 C   0  0  0  0  0  0  0  0  0  0  0  0
    4.1397    4.6474    3.4226 C   0  0  0  0  0  0  0  0  0  0  0  0
    5.3405    4.1365    2.9309 C   0  0  0  0  0  0  0  0  0  0  0  0
    5.3668    2.8998    2.2906 C   0  0  0  0  0  0  0  0  0  0  0  0
    4.2006    2.1591    2.1504 C   0  0  0  0  0  0  0  0  0  0  0  0
    3.0015    2.6536    2.6561 C   0  0  0  0  0  0  0  0  0  0  0  0
    1.6449    4.3905    3.7939 C   0  0  0  0  0  0  0  0  0  0  0  0
    4.1321    5.9324    4.1947 C   0  0  0  0  0  0  0  0  0  0  0  0
    0.2075    6.2664    3.9981 C   0  0  0  0  0  0  0  0  0  0  0  0
   -0.1971    7.4645    3.1734 C   0  0  0  0  0  0  0  0  0  0  0  0
    0.6209    8.7376    3.4307 C   0  0  0  0  0  0  0  0  0  0  0  0
    2.0925    8.5091    3.3130 C   0  0  0  0  0  0  0  0  0  0  0  0
    2.9743    8.7327    4.2698 C   0  0  0  0  0  0  0  0  0  0  0  0
    4.4260    8.3325    4.1624 C   0  0  0  0  0  0  0  0  0  0  0  0
  1 11  2  0
  2 11  1  0
  3 12  2  0
  5  6  2  0
  6  7  1  0
  8  7  2  0
  9  8  1  0
 10  5  1  0
 11  5  1  0
 12  4  1  0
 13  2  1  0
 14 13  1  0
 15 14  1  0
 16 15  1  0
 17 16  2  0
 18  4  1  0
  6 12  1  0
  9 10  2  0
 17 18  1  0
M  END
>  <_TriposChargeType>  (145) 
NO_CHARGES

$$$$
NENXOT
     RDKit          3D

 26 28  0  0  0  0  0  0  0  0999 V2000
    5.5583    8.7526    1.1554 C   0  0  0  0  0  0  0  0  0  0  0  0
    5.3562   10.1067    1.2834 C   0  0  0  0  0  0  0  0  0  0  0  0
    4.0731   10.5816    1.5999 C   0  0  0  0  0  0  0  0  0  0  0  0
    3.0490    9.6911    1.7785 C   0  0  0  0  0  0  0  0  0  0  0  0
    3.2425    8.3065    1.6468 C   0  0  0  0  0  0  0  0  0  0  0  0
    2.0891    7.3591    1.8245 C   0  0  0  0  0  0  0  0  0  0  0  0
    2.5831    5.9635    2.1371 C   0  0  0  0  0  0  0  0  0  0  0  0
    3.6034    5.5500    1.1734 N   0  0  0  0  0  0  0  0  0  0  0  0
    3.6467    4.3571    0.5306 C   0  0  0  0  0  0  0  0  0  0  0  0
    2.4774    3.4018    0.6686 C   0  0  0  0  0  0  0  0  0  0  0  0
    2.8237    1.9541    0.3189 C   0  0  0  0  0  0  0  0  0  0  0  0
    3.6152    1.1814    1.3713 C   0  0  0  0  0  0  0  0  0  0  0  0
    5.0872    1.5525    1.5100 C   0  0  0  0  0  0  0  0  0  0  0  0
    5.3619    2.7779    2.3381 C   0  0  0  0  0  0  0  0  0  0  0  0
    6.7436    3.3919    2.2219 C   0  0  0  0  0  0  0  0  0  0  0  0
    6.7738    4.7943    1.6419 C   0  0  0  0  0  0  0  0  0  0  0  0
    5.8553    5.8633    2.1891 C   0  0  0  0  0  0  0  0  0  0  0  0
    4.8222    6.3694    1.1442 C   0  0  2  0  0  0  0  0  0  0  0  0
    4.5065    7.8416    1.3375 C   0  0  0  0  0  0  0  0  0  0  0  0
    7.6474   10.5978    0.9587 C   0  0  0  0  0  0  0  0  0  0  0  0
    2.7192   12.5049    1.7827 C   0  0  0  0  0  0  0  0  0  0  0  0
    6.3215   11.0630    1.1328 O   0  0  0  0  0  0  0  0  0  0  0  0
    3.9761   11.9428    1.7179 O   0  0  0  0  0  0  0  0  0  0  0  0
    4.6238    4.0590   -0.1552 O   0  0  0  0  0  0  0  0  0  0  0  0
    4.5459    3.2456    3.0982 O   0  0  0  0  0  0  0  0  0  0  0  0
    7.5964    5.0733    0.8031 O   0  0  0  0  0  0  0  0  0  0  0  0
  2  1  2  0
  3  2  1  0
  4  3  2  0
  5  4  1  0
  6  5  1  0
  7  6  1  0
  8  7  1  0
  9  8  1  0
 10  9  1  0
 11 10  1  0
 12 11  1  0
 13 12  1  0
 14 13  1  0
 15 14  1  0
 16 15  1  0
 17 16  1  0
 18  8  1  0
 19  1  1  0
 22  2  1  0
 23  3  1  0
 24  9  2  0
 25 14  2  0
 26 16  2  0
  5 19  2  0
 18 17  1  1
 18 19  1  0
 20 22  1  0
 21 23  1  0
M  END
>  <_TriposChargeType>  (146) 
NO_CHARGES

$$$$
NIYNIS
     RDKit          3D

 60 64  0  0  0  0  0  0  0  0999 V2000
    1.8995   -2.5259   -1.6218 N   0  0  0  0  0  0  0  0  0  0  0  0
    0.8517   -3.5395   -1.3907 C   0  0  0  0  0  0  0  0  0  0  0  0
    0.7172   -3.8504    0.0551 C   0  0  0  0  0  0  0  0  0  0  0  0
   -0.4201   -3.8571    0.6985 C   0  0  0  0  0  0  0  0  0  0  0  0
   -0.5825   -4.2607    2.1306 C   0  0  0  0  0  0  0  0  0  0  0  0
   -1.3770   -3.2686    2.8608 N   0  0  0  0  0  0  0  0  0  0  0  0
   -0.7798   -1.9196    3.0050 C   0  0  0  0  0  0  0  0  0  0  0  0
   -1.4970   -0.8971    2.1996 C   0  0  0  0  0  0  0  0  0  0  0  0
   -0.9827    0.1900    1.7168 C   0  0  0  0  0  0  0  0  0  0  0  0
    1.7680   -1.2152   -0.9632 C   0  0  0  0  0  0  0  0  0  0  0  0
    2.7860   -2.6137   -2.9638 S   0  0  0  0  0  0  0  0  0  0  0  0
    3.7954   -1.6154   -2.8562 O   0  0  0  0  0  0  0  0  0  0  0  0
    3.1607   -3.9804   -3.1199 O   0  0  0  0  0  0  0  0  0  0  0  0
    1.7994   -2.2031   -4.3611 C   0  0  0  0  0  0  0  0  0  0  0  0
    2.0417   -1.0466   -5.0609 C   0  0  0  0  0  0  0  0  0  0  0  0
    1.2907   -0.7846   -6.1939 C   0  0  0  0  0  0  0  0  0  0  0  0
    0.3120   -1.6477   -6.5447 C   0  0  0  0  0  0  0  0  0  0  0  0
    0.0437   -2.7856   -5.8726 C   0  0  0  0  0  0  0  0  0  0  0  0
    0.8088   -3.0733   -4.7740 C   0  0  0  0  0  0  0  0  0  0  0  0
   -0.4193   -1.3521   -7.6427 F   0  0  0  0  0  0  0  0  0  0  0  0
   -2.3066   -3.7648    4.0912 S   0  0  0  0  0  0  0  0  0  0  0  0
   -2.8321   -5.0346    3.7241 O   0  0  0  0  0  0  0  0  0  0  0  0
   -3.1898   -2.6858    4.3960 O   0  0  0  0  0  0  0  0  0  0  0  0
   -1.2339   -3.9754    5.4755 C   0  0  0  0  0  0  0  0  0  0  0  0
   -1.2670   -3.0719    6.5167 C   0  0  0  0  0  0  0  0  0  0  0  0
   -0.3525   -3.1692    7.5312 C   0  0  0  0  0  0  0  0  0  0  0  0
    0.5666   -4.1716    7.4802 C   0  0  0  0  0  0  0  0  0  0  0  0
    0.6036   -5.0851    6.4994 C   0  0  0  0  0  0  0  0  0  0  0  0
   -0.3115   -4.9959    5.4778 C   0  0  0  0  0  0  0  0  0  0  0  0
    1.4889   -4.2524    8.4716 F   0  0  0  0  0  0  0  0  0  0  0  0
   -1.7680    1.2152    0.9632 C   0  0  0  0  0  0  0  0  0  0  0  0
   -1.8995    2.5259    1.6218 N   0  0  0  0  0  0  0  0  0  0  0  0
   -0.8517    3.5395    1.3907 C   0  0  0  0  0  0  0  0  0  0  0  0
   -0.7172    3.8504   -0.0551 C   0  0  0  0  0  0  0  0  0  0  0  0
    0.4201    3.8571   -0.6985 C   0  0  0  0  0  0  0  0  0  0  0  0
    0.5825    4.2607   -2.1306 C   0  0  0  0  0  0  0  0  0  0  0  0
    1.3770    3.2686   -2.8608 N   0  0  0  0  0  0  0  0  0  0  0  0
    0.7798    1.9196   -3.0050 C   0  0  0  0  0  0  0  0  0  0  0  0
    1.4970    0.8971   -2.1996 C   0  0  0  0  0  0  0  0  0  0  0  0
    0.9827   -0.1900   -1.7168 C   0  0  0  0  0  0  0  0  0  0  0  0
    2.3066    3.7648   -4.0912 S   0  0  0  0  0  0  0  0  0  0  0  0
    2.8321    5.0346   -3.7241 O   0  0  0  0  0  0  0  0  0  0  0  0
    3.1898    2.6858   -4.3960 O   0  0  0  0  0  0  0  0  0  0  0  0
    1.2339    3.9754   -5.4755 C   0  0  0  0  0  0  0  0  0  0  0  0
    1.2670    3.0719   -6.5167 C   0  0  0  0  0  0  0  0  0  0  0  0
    0.3525    3.1692   -7.5312 C   0  0  0  0  0  0  0  0  0  0  0  0
   -0.5666    4.1716   -7.4802 C   0  0  0  0  0  0  0  0  0  0  0  0
   -0.6036    5.0851   -6.4994 C   0  0  0  0  0  0  0  0  0  0  0  0
    0.3115    4.9959   -5.4778 C   0  0  0  0  0  0  0  0  0  0  0  0
   -1.4889    4.2524   -8.4716 F   0  0  0  0  0  0  0  0  0  0  0  0
   -2.7860    2.6137    2.9638 S   0  0  0  0  0  0  0  0  0  0  0  0
   -3.7954    1.6154    2.8562 O   0  0  0  0  0  0  0  0  0  0  0  0
   -3.1607    3.9804    3.1199 O   0  0  0  0  0  0  0  0  0  0  0  0
   -1.7994    2.2031    4.3611 C   0  0  0  0  0  0  0  0  0  0  0  0
   -2.0417    1.0466    5.0609 C   0  0  0  0  0  0  0  0  0  0  0  0
   -1.2907    0.7846    6.1939 C   0  0  0  0  0  0  0  0  0  0  0  0
   -0.3120    1.6477    6.5447 C   0  0  0  0  0  0  0  0  0  0  0  0
   -0.0437    2.7856    5.8726 C   0  0  0  0  0  0  0  0  0  0  0  0
   -0.8088    3.0733    4.7740 C   0  0  0  0  0  0  0  0  0  0  0  0
    0.4193    1.3521    7.6427 F   0  0  0  0  0  0  0  0  0  0  0  0
  1  2  1  0
  3  2  1  0
  4  3  2  0
  5  4  1  0
  6  5  1  0
  7  6  1  0
  8  7  1  0
  9  8  2  0
 10  1  1  0
 11  1  1  0
 12 11  2  0
 13 11  2  0
 14 11  1  0
 15 14  2  0
 16 15  1  0
 17 16  2  0
 18 17  1  0
 19 14  1  0
 20 17  1  0
 21  6  1  0
 22 21  2  0
 23 21  2  0
 24 21  1  0
 25 24  2  0
 26 25  1  0
 27 26  2  0
 28 27  1  0
 29 24  1  0
 30 27  1  0
 31  9  1  0
 32 31  1  0
 33 32  1  0
 34 33  1  0
 35 34  2  0
 36 35  1  0
 37 36  1  0
 38 37  1  0
 39 38  1  0
 40 10  1  0
 41 37  1  0
 42 41  2  0
 43 41  2  0
 44 41  1  0
 45 44  2  0
 46 45  1  0
 47 46  2  0
 48 47  1  0
 49 44  1  0
 50 47  1  0
 51 32  1  0
 52 51  2  0
 53 51  2  0
 54 51  1  0
 55 54  2  0
 56 55  1  0
 57 56  2  0
 58 57  1  0
 59 54  1  0
 60 57  1  0
 18 19  2  0
 28 29  2  0
 39 40  2  0
 48 49  2  0
 58 59  2  0
M  END
>  <_TriposChargeType>  (147) 
NO_CHARGES

$$$$
NUJDEB
     RDKit          3D

 80 86  0  0  0  0  0  0  0  0999 V2000
    4.1351    7.9114    6.5766 S   0  0  0  0  0  0  0  0  0  0  0  0
    7.1625    0.8379    6.1473 S   0  0  0  0  0  0  0  0  0  0  0  0
    2.9031    8.6248    6.4277 O   0  0  0  0  0  0  0  0  0  0  0  0
    4.2381    6.8188    7.5071 O   0  0  0  0  0  0  0  0  0  0  0  0
    5.8011    0.5204    6.4424 O   0  0  0  0  0  0  0  0  0  0  0  0
    8.2302    0.1903    6.8683 O   0  0  0  0  0  0  0  0  0  0  0  0
    2.7469   10.1202    2.2773 N   0  0  0  0  0  0  0  0  0  0  0  0
    4.5003    7.3178    5.0982 N   0  0  0  0  0  0  0  0  0  0  0  0
    7.3458    2.4312    6.3688 N   0  0  0  0  0  0  0  0  0  0  0  0
    3.0012    8.7351    1.8393 C   0  0  0  0  0  2  0  0  0  0  0  0
    3.1674    7.7826    3.0217 C   0  0  0  0  0  2  0  0  0  0  0  0
    4.3150    8.2009    3.9227 C   0  0  0  0  0  2  0  0  0  0  0  0
    5.5281    6.2555    5.0021 C   0  0  0  0  0  2  0  0  0  0  0  0
    4.9398    4.9243    4.6265 C   0  0  0  0  0  2  0  0  0  0  0  0
    5.9910    3.8113    4.7156 C   0  0  0  0  0  2  0  0  0  0  0  0
    6.2024    3.3401    6.1611 C   0  0  0  0  0  2  0  0  0  0  0  0
    8.7079    2.9875    6.2658 C   0  0  0  0  0  2  0  0  0  0  0  0
    9.0855    3.7910    7.5027 C   0  0  0  0  0  2  0  0  0  0  0  0
    3.0390   11.0848    1.1789 C   0  0  0  0  0  2  0  0  0  0  0  0
    1.3594   10.2793    2.7317 C   0  0  0  0  0  2  0  0  0  0  0  0
    1.1999   11.4938    3.6137 C   0  0  0  0  0  0  0  0  0  0  0  0
    1.6701   11.4622    4.9277 C   0  0  0  0  0  3  0  0  0  0  0  0
    1.5249   12.5796    5.7854 C   0  0  0  0  0  3  0  0  0  0  0  0
    0.9042   13.7161    5.2817 C   0  0  0  0  0  3  0  0  0  0  0  0
    0.4167   13.7371    4.0206 C   0  0  0  0  0  3  0  0  0  0  0  0
    0.5476   12.6380    3.1481 C   0  0  0  0  0  3  0  0  0  0  0  0
    5.3919    9.0788    7.0146 C   0  0  0  0  0  0  0  0  0  0  0  0
    5.1685   10.4389    6.7956 C   0  0  0  0  0  3  0  0  0  0  0  0
    6.1600   11.3328    7.1297 C   0  0  0  0  0  3  0  0  0  0  0  0
    7.3832   10.9046    7.6551 C   0  0  0  0  0  0  0  0  0  0  0  0
    7.5880    9.5345    7.8645 C   0  0  0  0  0  3  0  0  0  0  0  0
    6.5989    8.6221    7.5633 C   0  0  0  0  0  3  0  0  0  0  0  0
    8.4691   11.9114    8.0030 C   0  0  0  0  0  1  0  0  0  0  0  0
    7.4133    0.4729    4.4187 C   0  0  0  0  0  0  0  0  0  0  0  0
    6.3282    0.2935    3.5644 C   0  0  0  0  0  3  0  0  0  0  0  0
    6.5488   -0.0197    2.2150 C   0  0  0  0  0  3  0  0  0  0  0  0
    7.8243   -0.1499    1.7182 C   0  0  0  0  0  0  0  0  0  0  0  0
    8.9036    0.0435    2.5872 C   0  0  0  0  0  3  0  0  0  0  0  0
    8.7125    0.3520    3.9522 C   0  0  0  0  0  3  0  0  0  0  0  0
    8.0620   -0.5201    0.2450 C   0  0  0  0  0  1  0  0  0  0  0  0
    4.5029   11.4829    1.1529 C   0  0  0  0  0  2  0  0  0  0  0  0
    4.8806   12.2863    2.3898 C   0  0  0  0  0  2  0  0  0  0  0  0
    6.2427   12.8426    2.2868 N   0  0  0  0  0  0  0  0  0  0  0  0
    6.4260   14.4359    2.5084 S   0  0  0  0  0  0  0  0  0  0  0  0
    7.7874   14.7535    2.2133 O   0  0  0  0  0  0  0  0  0  0  0  0
    5.3583   15.0836    1.7874 O   0  0  0  0  0  0  0  0  0  0  0  0
    6.1751   14.8009    4.2370 C   0  0  0  0  0  0  0  0  0  0  0  0
    7.2602   14.9803    5.0913 C   0  0  0  0  0  3  0  0  0  0  0  0
    7.0397   15.2936    6.4407 C   0  0  0  0  0  3  0  0  0  0  0  0
    5.7642   15.4237    6.9375 C   0  0  0  0  0  0  0  0  0  0  0  0
    4.6848   15.2303    6.0685 C   0  0  0  0  0  3  0  0  0  0  0  0
    4.8760   14.9218    4.7035 C   0  0  0  0  0  3  0  0  0  0  0  0
    5.5264   15.7939    8.4107 C   0  0  0  0  0  1  0  0  0  0  0  0
    7.3860   11.9338    2.4946 C   0  0  0  0  0  2  0  0  0  0  0  0
    7.5974   11.4626    3.9401 C   0  0  0  0  0  2  0  0  0  0  0  0
    8.6487   10.3496    4.0292 C   0  0  0  0  0  2  0  0  0  0  0  0
    8.0604    9.0184    3.6536 C   0  0  0  0  0  2  0  0  0  0  0  0
    9.0881    7.9560    3.5575 N   0  0  0  0  0  0  0  0  0  0  0  0
    9.4534    7.3624    2.0791 S   0  0  0  0  0  0  0  0  0  0  0  0
   10.6854    6.6490    2.2280 O   0  0  0  0  0  0  0  0  0  0  0  0
    9.3504    8.4550    1.1486 O   0  0  0  0  0  0  0  0  0  0  0  0
    8.1966    6.1950    1.6411 C   0  0  0  0  0  0  0  0  0  0  0  0
    8.4200    4.8350    1.8601 C   0  0  0  0  0  3  0  0  0  0  0  0
    7.4284    3.9410    1.5260 C   0  0  0  0  0  3  0  0  0  0  0  0
    6.2053    4.3692    1.0006 C   0  0  0  0  0  0  0  0  0  0  0  0
    6.0005    5.7393    0.7911 C   0  0  0  0  0  3  0  0  0  0  0  0
    6.9896    6.6517    1.0923 C   0  0  0  0  0  3  0  0  0  0  0  0
    5.1193    3.3624    0.6526 C   0  0  0  0  0  1  0  0  0  0  0  0
    9.2734    7.0729    4.7329 C   0  0  0  0  0  2  0  0  0  0  0  0
   10.4211    7.4912    5.6340 C   0  0  0  0  0  2  0  0  0  0  0  0
   10.5873    6.5387    6.8163 C   0  0  0  0  0  2  0  0  0  0  0  0
   10.8416    5.1536    6.3784 N   0  0  0  0  0  0  0  0  0  0  0  0
   10.5495    4.1890    7.4768 C   0  0  0  0  0  2  0  0  0  0  0  0
   12.2291    4.9946    5.9239 C   0  0  0  0  0  2  0  0  0  0  0  0
   12.3886    3.7800    5.0419 C   0  0  0  0  0  0  0  0  0  0  0  0
   11.9183    3.8116    3.7280 C   0  0  0  0  0  3  0  0  0  0  0  0
   12.0635    2.6942    2.8702 C   0  0  0  0  0  3  0  0  0  0  0  0
   12.6842    1.5578    3.3740 C   0  0  0  0  0  3  0  0  0  0  0  0
   13.1717    1.5367    4.6351 C   0  0  0  0  0  3  0  0  0  0  0  0
   13.0408    2.6359    5.5076 C   0  0  0  0  0  3  0  0  0  0  0  0
  1  3  2  0
  2  5  2  0
  4  1  2  0
  6  2  2  0
  7 10  1  0
  8  1  1  0
  9  2  1  0
 10 11  1  0
 11 12  1  0
 12  8  1  0
 13  8  1  0
 14 13  1  0
 15 14  1  0
 16  9  1  0
 17  9  1  0
 18 17  1  0
 19  7  1  0
 20  7  1  0
 21 20  1  0
 22 21  2  0
 23 22  1  0
 24 23  2  0
 25 24  1  0
 26 21  1  0
 27  1  1  0
 28 27  2  0
 29 28  1  0
 30 29  2  0
 31 30  1  0
 32 27  1  0
 33 30  1  0
 34  2  1  0
 35 34  2  0
 36 35  1  0
 37 36  2  0
 38 37  1  0
 39 34  1  0
 40 37  1  0
 41 19  1  0
 42 41  1  0
 43 42  1  0
 44 43  1  0
 45 44  2  0
 46 44  2  0
 47 44  1  0
 48 47  2  0
 49 48  1  0
 50 49  2  0
 51 50  1  0
 52 47  1  0
 53 50  1  0
 54 43  1  0
 55 54  1  0
 56 55  1  0
 57 56  1  0
 58 57  1  0
 59 58  1  0
 60 59  2  0
 61 59  2  0
 62 59  1  0
 63 62  2  0
 64 63  1  0
 65 64  2  0
 66 65  1  0
 67 62  1  0
 68 65  1  0
 69 58  1  0
 70 69  1  0
 71 70  1  0
 72 71  1  0
 73 18  1  0
 74 72  1  0
 75 74  1  0
 76 75  2  0
 77 76  1  0
 78 77  2  0
 79 78  1  0
 80 75  1  0
 15 16  1  0
 25 26  2  0
 31 32  2  0
 38 39  2  0
 51 52  2  0
 66 67  2  0
 72 73  1  0
 79 80  2  0
M  RAD  8  10   3  11   3  12   3  13   3  14   3  15   3  16   3  17   3
M  RAD  8  18   3  19   3  20   3  22   2  23   2  24   2  25   2  26   2
M  RAD  8  28   2  29   2  31   2  32   2  33   2  35   2  36   2  38   2
M  RAD  8  39   2  40   2  41   3  42   3  48   2  49   2  51   2  52   2
M  RAD  8  53   2  54   3  55   3  56   3  57   3  63   2  64   2  66   2
M  RAD  8  67   2  68   2  69   3  70   3  71   3  73   3  74   3  76   2
M  RAD  4  77   2  78   2  79   2  80   2
M  END
>  <_TriposChargeType>  (148) 
NO_CHARGES

$$$$
OCERET
     RDKit          3D

 50 55  0  0  0  0  0  0  0  0999 V2000
   10.9465    2.3336   -4.8278 O   0  0  0  0  0  0  0  0  0  0  0  0
    9.5498    2.0346   -4.8206 C   0  0  0  0  0  0  0  0  0  0  0  0
    9.3701    0.8059   -5.6689 C   0  0  0  0  0  0  0  0  0  0  0  0
   10.0249   -0.4403   -5.1095 C   0  0  0  0  0  0  0  0  0  0  0  0
    9.4046   -0.9688   -3.8495 C   0  0  0  0  0  0  0  0  0  0  0  0
    8.0896   -1.4634   -4.1805 O   0  0  0  0  0  0  0  0  0  0  0  0
    7.2700   -1.8432   -3.1693 C   0  0  0  0  0  0  0  0  0  0  0  0
    6.0365   -2.3653   -3.5489 C   0  0  0  0  0  0  0  0  0  0  0  0
    5.1087   -2.7324   -2.6125 C   0  0  0  0  0  0  0  0  0  0  0  0
    5.3709   -2.5992   -1.2603 C   0  0  0  0  0  0  0  0  0  0  0  0
    6.6261   -2.1178   -0.8945 C   0  0  0  0  0  0  0  0  0  0  0  0
    7.5736   -1.7400   -1.8278 C   0  0  0  0  0  0  0  0  0  0  0  0
    4.3297   -3.0461   -0.2897 C   0  0  0  0  0  0  0  0  0  0  0  0
    4.4612   -2.7097    1.1393 C   0  0  0  0  0  0  0  0  0  0  0  0
    4.1363   -3.6819    2.0834 C   0  0  0  0  0  0  0  0  0  0  0  0
    4.2942   -3.4343    3.4150 C   0  0  0  0  0  0  0  0  0  0  0  0
    4.7533   -2.1928    3.8434 C   0  0  0  0  0  0  0  0  0  0  0  0
    4.9959   -1.1834    2.9238 C   0  0  0  0  0  0  0  0  0  0  0  0
    4.8617   -1.4588    1.5871 C   0  0  0  0  0  0  0  0  0  0  0  0
    4.9391   -2.0757    5.1775 O   0  0  0  0  0  0  0  0  0  0  0  0
    5.1052   -0.7652    5.7412 C   0  0  0  0  0  0  0  0  0  0  0  0
    6.5096   -0.1913    5.7077 C   0  0  0  0  0  0  0  0  0  0  0  0
    6.5266    1.0550    6.5826 C   0  0  0  0  0  0  0  0  0  0  0  0
    7.7484    1.9370    6.4869 C   0  0  0  0  0  0  0  0  0  0  0  0
    7.8709    2.4227    5.1480 O   0  0  0  0  0  0  0  0  0  0  0  0
    8.8724    3.3385    4.8993 C   0  0  0  0  0  0  0  0  0  0  0  0
    9.7059    3.8726    5.8588 C   0  0  0  0  0  0  0  0  0  0  0  0
   10.6984    4.7723    5.4957 C   0  0  0  0  0  0  0  0  0  0  0  0
   10.8988    5.1796    4.1871 C   0  0  0  0  0  0  0  0  0  0  0  0
   10.0391    4.6447    3.2461 C   0  0  0  0  0  0  0  0  0  0  0  0
    9.0434    3.7356    3.5888 C   0  0  0  0  0  0  0  0  0  0  0  0
   11.9974    6.2100    3.8505 C   0  0  0  0  0  0  0  0  0  0  0  0
   13.3270    5.7636    4.4741 C   0  0  0  0  0  0  0  0  0  0  0  0
   11.6209    7.5520    4.4835 C   0  0  0  0  0  0  0  0  0  0  0  0
   12.1913    6.3536    2.3486 C   0  0  0  0  0  0  0  0  0  0  0  0
   11.8332    7.4810    1.6421 C   0  0  0  0  0  0  0  0  0  0  0  0
   12.0759    7.6075    0.2876 C   0  0  0  0  0  0  0  0  0  0  0  0
   12.6864    6.5931   -0.4169 C   0  0  0  0  0  0  0  0  0  0  0  0
   13.0033    5.4317    0.2834 C   0  0  0  0  0  0  0  0  0  0  0  0
   12.7702    5.3160    1.6254 C   0  0  0  0  0  0  0  0  0  0  0  0
   13.0931    6.7087   -1.8776 C   0  0  0  0  0  0  0  0  0  0  0  0
   14.6285    6.7470   -1.9228 C   0  0  0  0  0  0  0  0  0  0  0  0
   12.5724    7.9922   -2.5247 C   0  0  0  0  0  0  0  0  0  0  0  0
   12.5218    5.5149   -2.6491 C   0  0  0  0  0  0  0  0  0  0  0  0
   13.2861    4.7367   -3.4964 C   0  0  0  0  0  0  0  0  0  0  0  0
   12.7330    3.6955   -4.2112 C   0  0  0  0  0  0  0  0  0  0  0  0
   11.3891    3.3980   -4.0932 C   0  0  0  0  0  0  0  0  0  0  0  0
   10.5978    4.1577   -3.2565 C   0  0  0  0  0  0  0  0  0  0  0  0
   11.1778    5.1963   -2.5457 C   0  0  0  0  0  0  0  0  0  0  0  0
    3.3761   -3.7204   -0.6616 O   0  0  0  0  0  0  0  0  0  0  0  0
  1  2  1  0
  3  2  1  0
  4  3  1  0
  5  4  1  0
  6  5  1  0
  7  6  1  0
  8  7  2  0
  9  8  1  0
 10  9  2  0
 11 10  1  0
 12  7  1  0
 13 10  1  0
 14 13  1  0
 15 14  2  0
 16 15  1  0
 17 16  2  0
 18 17  1  0
 19 14  1  0
 20 17  1  0
 21 20  1  0
 22 21  1  0
 23 22  1  0
 24 23  1  0
 25 24  1  0
 26 25  1  0
 27 26  2  0
 28 27  1  0
 29 28  2  0
 30 29  1  0
 31 26  1  0
 32 29  1  0
 33 32  1  0
 34 32  1  0
 35 32  1  0
 36 35  2  0
 37 36  1  0
 38 37  2  0
 39 38  1  0
 40 35  1  0
 41 38  1  0
 42 41  1  0
 43 41  1  0
 44 41  1  0
 45 44  1  0
 46 45  2  0
 47  1  1  0
 48 47  2  0
 49 44  2  0
 50 13  2  0
 11 12  2  0
 18 19  2  0
 30 31  2  0
 39 40  2  0
 46 47  1  0
 48 49  1  0
M  END
>  <_TriposChargeType>  (149) 
NO_CHARGES

$$$$
OCUPAD
     RDKit          3D

 16 17  0  0  0  0  0  0  0  0999 V2000
    0.3404    4.6781    4.2074 C   0  0  0  0  0  0  0  0  0  0  0  0
    0.3060    3.6050    5.6662 S   0  0  0  0  0  0  0  0  0  0  0  0
    1.9975    2.9859    5.7572 C   0  0  0  0  0  0  0  0  0  0  0  0
    2.2863    1.6632    5.0246 C   0  0  0  0  0  0  0  0  0  0  0  0
    3.7288    1.2458    5.1284 C   0  0  0  0  0  0  0  0  0  0  0  0
    4.7116    1.9954    4.2090 C   0  0  0  0  0  0  0  0  0  0  0  0
    4.7396    1.3966    2.5008 S   0  0  0  0  0  0  0  0  0  0  0  0
    4.1412    2.7948    1.4975 C   0  0  0  0  0  0  0  0  0  0  0  0
    2.6606    3.0025    1.6875 C   0  0  0  0  0  0  0  0  0  0  0  0
    1.7365    2.1138    1.1142 C   0  0  0  0  0  0  0  0  0  0  0  0
    2.3062    0.8198   -0.1406 Br  0  0  0  0  0  0  0  0  0  0  0  0
    0.3908    2.1636    1.4154 C   0  0  0  0  0  0  0  0  0  0  0  0
   -0.0410    3.0378    2.3911 C   0  0  0  0  0  0  0  0  0  0  0  0
    0.8193    3.9369    3.0030 C   0  0  0  0  0  0  0  0  0  0  0  0
    2.1360    3.9680    2.5562 C   0  0  0  0  0  0  0  0  0  0  0  0
    3.2693    5.3872    3.1210 Br  0  0  0  0  0  0  0  0  0  0  0  0
  2  1  1  0
  3  2  1  0
  4  3  1  0
  5  4  1  0
  6  5  1  0
  7  6  1  0
  8  7  1  0
  9  8  1  0
 10  9  2  0
 11 10  1  0
 12 10  1  0
 13 12  2  0
 14  1  1  0
 15  9  1  0
 16 15  1  0
 13 14  1  0
 14 15  2  0
M  END
>  <_TriposChargeType>  (150) 
NO_CHARGES

$$$$
ODETEW
     RDKit          3D

 23 24  0  0  0  0  0  0  0  0999 V2000
    3.9205    3.5947    3.9255 O   0  0  0  0  0  0  0  0  0  0  0  0
    1.8734    1.4798    6.4127 O   0  0  0  0  0  0  0  0  0  0  0  0
    3.2516    0.7328    9.6655 O   0  0  0  0  0  0  0  0  0  0  0  0
    5.8573    2.8489    6.8527 C   0  0  2  0  0  0  0  0  0  0  0  0
    6.2896    3.8083    5.7526 C   0  0  0  0  0  0  0  0  0  0  0  0
    5.2575    4.8967    5.4221 C   0  0  0  0  0  0  0  0  0  0  0  0
    3.9808    4.2603    4.9471 C   0  0  0  0  0  0  0  0  0  0  0  0
    2.9342    4.4424    5.7681 N   0  0  0  0  0  0  0  0  0  0  0  0
    1.6540    3.7439    5.5965 C   0  0  0  0  0  0  0  0  0  0  0  0
    1.5828    2.6627    6.6618 C   0  0  0  0  0  0  0  0  0  0  0  0
    1.2803    3.0713    7.8792 N   0  0  0  0  0  0  0  0  0  0  0  0
    1.4604    2.1753    9.0026 C   0  0  0  0  0  0  0  0  0  0  0  0
    2.9120    1.8596    9.2953 C   0  0  0  0  0  0  0  0  0  0  0  0
    3.7583    2.8662    9.1644 N   0  0  0  0  0  0  0  0  0  0  0  0
    5.2001    2.7528    9.3428 C   0  0  0  0  0  0  0  0  0  0  0  0
    5.9721    3.4637    8.2485 C   0  0  0  0  0  0  0  0  0  0  0  0
    6.6616    1.5340    6.7810 C   0  0  0  0  0  0  0  0  0  0  0  0
    6.4851    0.7496    5.5016 C   0  0  0  0  0  0  0  0  0  0  0  0
    5.2176    0.3964    5.0567 C   0  0  0  0  0  0  0  0  0  0  0  0
    5.0503   -0.3726    3.9333 C   0  0  0  0  0  0  0  0  0  0  0  0
    6.1613   -0.8180    3.2199 C   0  0  0  0  0  0  0  0  0  0  0  0
    7.4024   -0.4390    3.6328 C   0  0  0  0  0  0  0  0  0  0  0  0
    7.5721    0.3297    4.7455 C   0  0  0  0  0  0  0  0  0  0  0  0
  1  7  2  0
  2 10  2  0
  3 13  2  0
  4  5  1  0
  5  6  1  0
  6  7  1  0
  7  8  1  0
  8  9  1  0
  9 10  1  0
 10 11  1  0
 11 12  1  0
 12 13  1  0
 13 14  1  0
 14 15  1  0
 15 16  1  0
 16  4  1  0
  4 17  1  1
 18 17  1  0
 19 18  2  0
 20 19  1  0
 21 20  2  0
 22 21  1  0
 23 18  1  0
 22 23  2  0
M  END
>  <_TriposChargeType>  (151) 
NO_CHARGES

$$$$
PAWXUG
     RDKit          3D

 20 21  0  0  0  0  0  0  0  0999 V2000
    3.4095    8.3252   -0.3435 O   0  0  0  0  0  0  0  0  0  0  0  0
    2.0391   11.0888    4.5252 O   0  0  0  0  0  0  0  0  0  0  0  0
    0.9944   11.0350    2.5568 O   0  0  0  0  0  0  0  0  0  0  0  0
    2.4549    8.2231    1.7012 N   0  0  0  0  0  0  0  0  0  0  0  0
    3.5073    8.0969    0.8707 C   0  0  0  0  0  0  0  0  0  0  0  0
    4.8021    7.6214    1.4843 C   0  0  0  0  0  0  0  0  0  0  0  0
    6.0072    8.5518    1.2757 C   0  0  0  0  0  0  0  0  0  0  0  0
    6.1152    9.6652    2.3066 C   0  0  0  0  0  0  0  0  0  0  0  0
    5.0877   10.7854    2.2006 C   0  0  0  0  0  0  0  0  0  0  0  0
    4.9749   11.5824    3.4870 C   0  0  0  0  0  0  0  0  0  0  0  0
    4.0905   12.8221    3.4391 C   0  0  0  0  0  0  0  0  0  0  0  0
    2.7309   12.6063    2.7879 C   0  0  0  0  0  0  0  0  0  0  0  0
    1.9235   11.5200    3.4201 C   0  0  0  0  0  0  0  0  0  0  0  0
    0.1179   10.0266    2.9906 C   0  0  0  0  0  0  0  0  0  0  0  0
    0.1481    8.8233    2.2939 C   0  0  0  0  0  0  0  0  0  0  0  0
    1.1376    8.5907    1.1794 C   0  0  0  0  0  0  0  0  0  0  0  0
   -0.7942    7.8582    2.6510 C   0  0  0  0  0  0  0  0  0  0  0  0
   -1.6926    8.0785    3.6839 C   0  0  0  0  0  0  0  0  0  0  0  0
   -1.6887    9.2847    4.3640 C   0  0  0  0  0  0  0  0  0  0  0  0
   -0.7851   10.2749    4.0103 C   0  0  0  0  0  0  0  0  0  0  0  0
  1  5  2  0
  2 13  2  0
  3 13  1  0
  4  5  1  0
  5  6  1  0
  6  7  1  0
  7  8  1  0
  8  9  1  0
  9 10  1  0
 10 11  1  0
 11 12  1  0
 12 13  1  0
 14  3  1  0
 15 14  2  0
 16  4  1  0
 17 15  1  0
 18 17  2  0
 19 18  1  0
 20 14  1  0
 15 16  1  0
 19 20  2  0
M  END
>  <_TriposChargeType>  (152) 
NO_CHARGES

$$$$
PEZNAJ
     RDKit          3D

 41 42  0  0  0  0  0  0  0  0999 V2000
    0.8620    6.0873    6.4167 O   0  0  0  0  0  0  0  0  0  0  0  0
    3.5183    8.2149    6.1991 O   0  0  0  0  0  0  0  0  0  0  0  0
    1.1174   10.4814    9.0434 O   0  0  0  0  0  0  0  0  0  0  0  0
    2.5679    7.6001    9.6185 O   0  0  0  0  0  0  0  0  0  0  0  0
    4.1224    4.7007   10.5304 O   0  0  0  0  0  0  0  0  0  0  0  0
    3.8125    5.8258   14.3566 O   0  0  0  0  0  0  0  0  0  0  0  0
    3.0942    3.7288   14.2452 O   0  0  0  0  0  0  0  0  0  0  0  0
    2.1603    3.5954   10.7039 N   0  0  0  0  0  0  0  0  0  0  0  0
    2.5766    5.8745    4.9764 N   0  0  0  0  0  0  0  0  0  0  0  0
    1.5458    9.1706    5.6861 N   0  0  0  0  0  0  0  0  0  0  0  0
    1.6557   14.4194    5.3416 N   0  0  0  0  0  0  0  0  0  0  0  0
    3.7762   15.2236    4.8701 N   0  0  0  0  0  0  0  0  0  0  0  0
    2.5489   16.1089    6.5902 N   0  0  0  0  0  0  0  0  0  0  0  0
    0.5331    8.5196    8.0953 N   0  0  0  0  0  0  0  0  0  0  0  0
    1.2186    6.3866   10.9552 N   0  0  0  0  0  0  0  0  0  0  0  0
    2.6138    2.4648    9.9242 C   0  0  0  0  0  0  0  0  0  0  0  0
    1.8046    5.4165    5.9582 C   0  0  0  0  0  0  0  0  0  0  0  0
    2.5255    2.6812    8.4217 C   0  0  0  0  0  0  0  0  0  0  0  0
    2.1516    3.8785    7.8673 C   0  0  0  0  0  0  0  0  0  0  0  0
    2.1473    4.0624    6.4814 C   0  0  0  0  0  0  0  0  0  0  0  0
    2.4883    3.0130    5.6447 C   0  0  0  0  0  0  0  0  0  0  0  0
    2.8371    1.7905    6.1913 C   0  0  0  0  0  0  0  0  0  0  0  0
    2.8683    1.6300    7.5694 C   0  0  0  0  0  0  0  0  0  0  0  0
    2.3420    7.1890    4.3935 C   0  0  1  0  0  0  0  0  0  0  0  0
    2.4996    8.2420    5.5074 C   0  0  0  0  0  0  0  0  0  0  0  0
    3.3434    7.4540    3.2511 C   0  0  0  0  0  0  0  0  0  0  0  0
    3.1392    6.4425    2.1294 C   0  0  0  0  0  0  0  0  0  0  0  0
    3.2075    8.8767    2.7330 C   0  0  0  0  0  0  0  0  0  0  0  0
    1.7509   10.1623    6.7508 C   0  0  2  0  0  0  0  0  0  0  0  0
    1.0905    9.7331    8.0668 C   0  0  0  0  0  0  0  0  0  0  0  0
    0.2666    9.2030    4.9634 C   0  0  0  0  0  0  0  0  0  0  0  0
    1.3839   11.5741    6.3130 C   0  0  0  0  0  0  0  0  0  0  0  0
    2.2243   12.0249    5.1162 C   0  0  0  0  0  0  0  0  0  0  0  0
    1.7033   13.2762    4.4375 C   0  0  0  0  0  0  0  0  0  0  0  0
    2.6640   15.2254    5.5929 C   0  0  0  0  0  0  0  0  0  0  0  0
    0.1973    7.8958    9.3543 C   0  0  0  0  0  0  0  0  0  0  0  0
    1.4385    7.2719    9.9864 C   0  0  0  0  0  0  0  0  0  0  0  0
    2.3325    5.8060   11.7065 C   0  0  2  0  0  0  0  0  0  0  0  0
    2.9600    4.6466   10.9319 C   0  0  0  0  0  0  0  0  0  0  0  0
    1.8418    5.4075   13.1027 C   0  0  0  0  0  0  0  0  0  0  0  0
    2.9938    4.9495   13.9732 C   0  0  0  0  0  0  0  0  0  0  0  0
  1 17  2  0
  2 25  2  0
  3 30  2  0
  4 37  2  0
  5 39  2  0
  6 41  1  0
  7 41  2  0
  8 16  1  0
  9 17  1  0
 10 25  1  0
 11 34  1  0
 12 35  2  0
 13 35  1  0
 14 30  1  0
 15 37  1  0
 16 18  1  0
 17 20  1  0
 18 19  1  0
 19 20  2  0
 20 21  1  0
 21 22  2  0
 22 23  1  0
 23 18  2  0
 24  9  1  0
 25 24  1  0
 24 26  1  6
 27 26  1  0
 28 26  1  0
 29 10  1  0
 30 29  1  0
 31 10  1  0
 29 32  1  6
 33 32  1  0
 34 33  1  0
 35 11  1  0
 36 14  1  0
 37 36  1  0
 38 15  1  0
 39  8  1  0
 38 40  1  1
 41 40  1  0
 38 39  1  0
M  CHG  1   6  -1
M  END
>  <_TriposChargeType>  (153) 
NO_CHARGES

$$$$
PIKZEO
     RDKit          3D

 38 42  0  0  0  0  0  0  0  0999 V2000
   10.1493   -0.4298    9.7678 C   0  0  0  0  0  0  0  0  0  0  0  0
    8.8432   -0.8866   10.3318 C   0  0  0  0  0  0  0  0  0  0  0  0
    7.9889    0.0228   10.8227 C   0  0  0  0  0  3  0  0  0  0  0  0
    6.6542   -0.1970   11.4622 C   0  0  0  0  0  2  0  0  0  0  0  0
    5.5389    0.6403   10.6905 C   0  0  0  0  0  2  0  0  0  0  0  0
    5.2947    0.1539    9.2769 C   0  0  1  0  0  0  0  0  0  0  0  0
    6.0367    0.7635    8.1984 C   0  0  0  0  0  3  0  0  0  0  0  0
    6.3331    0.0985    6.8627 C   0  0  0  0  0  2  0  0  0  0  0  0
    7.7382   -0.4495    6.8297 C   0  0  0  0  0  2  0  0  0  0  0  0
    8.0843   -1.0522    5.4821 C   0  0  2  0  0  0  0  0  0  0  0  0
    8.5893   -0.1595    4.4556 C   0  0  0  0  0  3  0  0  0  0  0  0
    8.4320   -0.3940    2.9971 C   0  0  0  0  0  2  0  0  0  0  0  0
    8.5960   -2.2861   10.4191 C   0  0  0  0  0  1  0  0  0  0  0  0
    4.7754   -1.2683    9.1259 C   0  0  0  0  0  1  0  0  0  0  0  0
    7.3397   -2.2966    5.1399 C   0  0  0  0  0  1  0  0  0  0  0  0
    9.6497    1.4407    2.0130 C   0  0  0  0  0  0  0  0  0  0  0  0
   10.9502    1.8348    1.4396 C   0  0  0  0  0  0  0  0  0  0  0  0
   11.7705    0.9174    0.9723 C   0  0  0  0  0  3  0  0  0  0  0  0
   13.1352    1.1698    0.3681 C   0  0  0  0  0  2  0  0  0  0  0  0
   14.2165    0.4864    1.1044 C   0  0  0  0  0  2  0  0  0  0  0  0
   14.4049    0.9543    2.5015 C   0  0  2  0  0  0  0  0  0  0  0  0
   13.6581    0.2524    3.6060 C   0  0  0  0  0  3  0  0  0  0  0  0
   13.3345    0.8620    4.9087 C   0  0  0  0  0  2  0  0  0  0  0  0
   11.9529    1.5146    4.9606 C   0  0  0  0  0  2  0  0  0  0  0  0
   11.6651    2.0866    6.2774 C   0  0  1  0  0  0  0  0  0  0  0  0
   11.1711    1.1618    7.3394 C   0  0  0  0  0  3  0  0  0  0  0  0
   11.3693    1.3853    8.7766 C   0  0  0  0  0  2  0  0  0  0  0  0
   11.1447    3.4233    1.5528 C   0  0  0  0  0  1  0  0  0  0  0  0
   14.9664    2.3027    2.6526 C   0  0  0  0  0  1  0  0  0  0  0  0
   12.3388    3.4171    6.6055 C   0  0  0  0  0  1  0  0  0  0  0  0
   11.0429   -1.1594    9.5625 O   0  0  0  0  0  0  0  0  0  0  0  0
    4.6799    1.1310    8.4509 O   0  0  0  0  0  0  0  0  0  0  0  0
    9.4831   -1.0541    5.1399 O   0  0  0  0  0  0  0  0  0  0  0  0
    9.5717    0.0942    2.2868 O   0  0  0  0  0  0  0  0  0  0  0  0
    8.6678    2.1839    2.2136 O   0  0  0  0  0  0  0  0  0  0  0  0
   15.0768   -0.0616    3.3653 O   0  0  0  0  0  0  0  0  0  0  0  0
   10.2351    2.0226    6.6550 O   0  0  0  0  0  0  0  0  0  0  0  0
   10.1531    0.8681    9.4893 O   0  0  0  0  0  0  0  0  0  0  0  0
  1  2  1  0
  2  3  2  0
  3  4  1  0
  4  5  1  0
  5  6  1  0
  6  7  1  0
  7  8  1  0
  8  9  1  0
  9 10  1  0
 10 11  1  0
 11 12  1  0
 12 34  1  0
 13  2  1  0
  6 14  1  1
 10 15  1  6
 16 17  1  0
 17 18  2  0
 18 19  1  0
 19 20  1  0
 20 21  1  0
 21 22  1  0
 22 23  1  0
 23 24  1  0
 24 25  1  0
 25 26  1  0
 26 27  1  0
 27 38  1  0
 28 17  1  0
 21 29  1  6
 25 30  1  1
 31  1  2  0
 32  6  1  0
 33 10  1  0
 34 16  1  0
 35 16  2  0
 36 21  1  0
 37 25  1  0
 38  1  1  0
  7 32  1  0
 11 33  1  0
 22 36  1  0
 26 37  1  0
M  RAD  8   3   2   4   3   5   3   7   2   8   3   9   3  11   2  12   3
M  RAD  8  13   2  14   2  15   2  18   2  19   3  20   3  22   2  23   3
M  RAD  6  24   3  26   2  27   3  28   2  29   2  30   2
M  END
>  <_TriposChargeType>  (154) 
NO_CHARGES

$$$$
PIZYIH
     RDKit          3D

 32 33  0  0  0  0  0  0  0  0999 V2000
    8.9719    2.4065   19.7516 S   0  0  0  0  0  0  0  0  0  0  0  0
    7.8859    0.6823   19.6218 S   0  0  0  0  0  0  0  0  0  0  0  0
    5.4701    4.6694   22.9287 N   0  0  0  0  0  0  0  0  0  0  0  0
    5.9409    3.2400   25.3552 N   0  0  0  0  0  0  0  0  0  0  0  0
    3.7668    1.5723   20.4100 N   0  0  0  0  0  0  0  0  0  0  0  0
    5.9838    3.1377   20.6948 N   0  0  0  0  0  0  0  0  0  0  0  0
    7.6935    4.8407   23.3421 O   0  0  0  0  0  0  0  0  0  0  0  0
    3.9576    4.0372   26.0668 O   0  0  0  0  0  0  0  0  0  0  0  0
    5.6060   -0.3302   25.5567 O   0  0  0  0  0  0  0  0  0  0  0  0
    4.8693    1.2024   24.0666 O   0  0  0  0  0  0  0  0  0  0  0  0
    3.1796    3.0858   21.9763 O   0  0  0  0  0  0  0  0  0  0  0  0
    5.2779    4.5794   19.0930 O   0  0  0  0  0  0  0  0  0  0  0  0
    7.0704    3.9395   21.2009 C   0  0  2  0  0  0  0  0  0  0  0  0
    8.3825    3.1540   21.2984 C   0  0  0  0  0  0  0  0  0  0  0  0
    8.6249   -0.3958   20.8960 C   0  0  0  0  0  0  0  0  0  0  0  0
    7.5163   -1.2137   21.5426 C   0  0  0  0  0  0  0  0  0  0  0  0
    6.5828   -0.4070   22.3985 C   0  0  0  0  0  0  0  0  0  0  0  0
    5.2636   -0.4653   22.3177 C   0  0  0  0  0  0  0  0  0  0  0  0
    4.2727    0.1494   23.2577 C   0  0  2  0  0  0  0  0  0  0  0  0
    6.7624    4.5233   22.6015 C   0  0  0  0  0  0  0  0  0  0  0  0
    4.9690    5.1935   24.2117 C   0  0  1  0  0  0  0  0  0  0  0  0
    4.9159    4.1002   25.2947 C   0  0  0  0  0  0  0  0  0  0  0  0
    5.8157    1.9997   26.0912 C   0  0  0  0  0  0  0  0  0  0  0  0
    5.4503    0.8131   25.2251 C   0  0  0  0  0  0  0  0  0  0  0  0
    3.0437    0.7558   22.5784 C   0  0  0  0  0  0  0  0  0  0  0  0
    3.3224    1.9024   21.6460 C   0  0  0  0  0  0  0  0  0  0  0  0
    3.9869    2.5890   19.3930 C   0  0  1  0  0  0  0  0  0  0  0  0
    5.1459    3.5258   19.7124 C   0  0  0  0  0  0  0  0  0  0  0  0
    5.7564    7.5194   23.6147 C   0  0  0  0  0  0  0  0  0  0  0  0
    5.6485    6.4812   24.7223 C   0  0  0  0  0  0  0  0  0  0  0  0
    4.8371    7.0581   25.8841 C   0  0  0  0  0  0  0  0  0  0  0  0
    4.1957    1.9065   18.0458 C   0  0  0  0  0  0  0  0  0  0  0  0
  1  2  1  0
  2 15  1  0
  7 20  2  0
  8 22  2  0
  9 24  2  0
 19 10  1  0
 11 26  2  0
 12 28  2  0
 13  6  1  0
 14  1  1  0
 16 15  1  0
 17 16  1  0
 18 17  2  0
 19 18  1  6
 20  3  1  0
 21  3  1  0
 22  4  1  0
 23  4  1  0
 24 10  1  0
 25 19  1  0
 26  5  1  0
 27  5  1  0
 28  6  1  0
 21 30  1  1
 31 30  1  0
 27 32  1  6
 13 14  1  1
 13 20  1  0
 21 22  1  0
 23 24  1  0
 25 26  1  0
 27 28  1  0
 29 30  1  0
M  END
>  <_TriposChargeType>  (155) 
NO_CHARGES

$$$$
POGLIH
     RDKit          3D

 78 86  0  0  0  0  0  0  0  0999 V2000
    1.7671   10.1742    5.1021 N   0  0  0  0  0  0  0  0  0  0  0  0
    0.5484    9.3253    5.2287 C   0  0  0  0  0  0  0  0  0  0  0  0
    0.1793    8.6741    3.9020 C   0  0  0  0  0  0  0  0  0  0  0  0
    0.0838    9.6786    2.7818 C   0  0  0  0  0  0  0  0  0  0  0  0
   -0.8632   10.6771    3.1725 O   0  0  0  0  0  0  0  0  0  0  0  0
   -0.9068   11.8422    2.4567 C   0  0  0  0  0  0  0  0  0  0  0  0
   -1.6738   12.8609    2.9956 C   0  0  0  0  0  0  0  0  0  0  0  0
   -1.8165   14.0673    2.3326 C   0  0  0  0  0  0  0  0  0  0  0  0
   -1.2037   14.2990    1.1034 C   0  0  0  0  0  0  0  0  0  0  0  0
   -0.4269   13.2693    0.5818 C   0  0  0  0  0  0  0  0  0  0  0  0
   -0.2687   12.0537    1.2356 C   0  0  0  0  0  0  0  0  0  0  0  0
   -1.3799   15.6054    0.3163 C   0  0  0  0  0  0  0  0  0  0  0  0
   -1.9373   15.2581   -1.0786 C   0  0  0  0  0  0  0  0  0  0  0  0
   -2.3876   16.5558    0.9956 C   0  0  0  0  0  0  0  0  0  0  0  0
   -0.0518   16.3736    0.1859 C   0  0  0  0  0  0  0  0  0  0  0  0
    1.0366   16.1510    1.0232 C   0  0  0  0  0  0  0  0  0  0  0  0
    2.2102   16.8985    0.9117 C   0  0  0  0  0  0  0  0  0  0  0  0
    2.3581   17.8966   -0.0386 C   0  0  0  0  0  0  0  0  0  0  0  0
    1.2558   18.1366   -0.8622 C   0  0  0  0  0  0  0  0  0  0  0  0
    0.0942   17.3891   -0.7579 C   0  0  0  0  0  0  0  0  0  0  0  0
    3.6330   18.7460   -0.1982 C   0  0  0  0  0  0  0  0  0  0  0  0
    3.9678   18.8703   -1.6970 C   0  0  0  0  0  0  0  0  0  0  0  0
    4.8350   18.0824    0.4911 C   0  0  0  0  0  0  0  0  0  0  0  0
    3.4301   20.1221    0.4553 C   0  0  0  0  0  0  0  0  0  0  0  0
    2.7632   20.2231    1.6798 C   0  0  0  0  0  0  0  0  0  0  0  0
    2.6713   21.4120    2.3636 C   0  0  0  0  0  0  0  0  0  0  0  0
    3.2506   22.5633    1.8519 C   0  0  0  0  0  0  0  0  0  0  0  0
    3.8959   22.5051    0.6268 C   0  0  0  0  0  0  0  0  0  0  0  0
    3.9735   21.2968   -0.0544 C   0  0  0  0  0  0  0  0  0  0  0  0
    3.1104   23.7009    2.6114 O   0  0  0  0  0  0  0  0  0  0  0  0
    3.9859   24.7971    2.3342 C   0  0  0  0  0  0  0  0  0  0  0  0
    3.9751   25.7126    3.5337 C   0  0  0  0  0  0  0  0  0  0  0  0
    4.3681   24.9913    4.8173 C   0  0  0  0  0  0  0  0  0  0  0  0
    5.6815   24.3227    4.6770 N   0  0  0  0  0  0  0  0  0  0  0  0
    5.7497   22.8786    4.7773 C   0  0  0  0  0  0  0  0  0  0  0  0
    6.4049   22.1572    3.7977 C   0  0  0  0  0  0  0  0  0  0  0  0
    6.5400   20.7792    3.9152 C   0  0  0  0  0  0  0  0  0  0  0  0
    6.0259   20.0932    5.0119 C   0  0  0  0  0  0  0  0  0  0  0  0
    5.3393   20.8449    5.9760 C   0  0  0  0  0  0  0  0  0  0  0  0
    5.1990   22.2086    5.8628 C   0  0  0  0  0  0  0  0  0  0  0  0
    6.2220   18.5913    5.2557 C   0  0  0  0  0  0  0  0  0  0  0  0
    6.9288   17.9025    4.0731 C   0  0  0  0  0  0  0  0  0  0  0  0
    7.1247   18.4298    6.4889 C   0  0  0  0  0  0  0  0  0  0  0  0
    4.8542   17.9218    5.4646 C   0  0  0  0  0  0  0  0  0  0  0  0
    3.8113   18.1586    4.5729 C   0  0  0  0  0  0  0  0  0  0  0  0
    2.5790   17.5189    4.6940 C   0  0  0  0  0  0  0  0  0  0  0  0
    2.3418   16.6003    5.7126 C   0  0  0  0  0  0  0  0  0  0  0  0
    3.3886   16.3589    6.5976 C   0  0  0  0  0  0  0  0  0  0  0  0
    4.6084   17.0087    6.4892 C   0  0  0  0  0  0  0  0  0  0  0  0
    1.0151   15.8463    5.9216 C   0  0  0  0  0  0  0  0  0  0  0  0
   -0.0548   16.2244    4.8850 C   0  0  0  0  0  0  0  0  0  0  0  0
    0.4576   16.2240    7.3043 C   0  0  0  0  0  0  0  0  0  0  0  0
    1.2741   14.3426    5.7814 C   0  0  0  0  0  0  0  0  0  0  0  0
    1.8761   13.8557    4.6208 C   0  0  0  0  0  0  0  0  0  0  0  0
    2.0492   12.5020    4.4030 C   0  0  0  0  0  0  0  0  0  0  0  0
    1.6231   11.5930    5.3546 C   0  0  0  0  0  0  0  0  0  0  0  0
    1.0566   12.0533    6.5318 C   0  0  0  0  0  0  0  0  0  0  0  0
    0.8906   13.4106    6.7442 C   0  0  0  0  0  0  0  0  0  0  0  0
    6.9969   25.1632    5.2038 S   0  0  0  0  0  0  0  0  0  0  0  0
    6.7446   26.5326    4.8727 O   0  0  0  0  0  0  0  0  0  0  0  0
    8.1530   24.5025    4.6888 O   0  0  0  0  0  0  0  0  0  0  0  0
    7.0164   25.0362    6.9663 C   0  0  0  0  0  0  0  0  0  0  0  0
    7.4446   23.8643    7.5758 C   0  0  0  0  0  0  0  0  0  0  0  0
    7.3765   23.7624    8.9534 C   0  0  0  0  0  0  0  0  0  0  0  0
    6.8927   24.8063    9.7368 C   0  0  0  0  0  0  0  0  0  0  0  0
    6.5171   25.9902    9.1075 C   0  0  0  0  0  0  0  0  0  0  0  0
    6.5656   26.1022    7.7335 C   0  0  0  0  0  0  0  0  0  0  0  0
    6.7443   24.6714   11.2316 C   0  0  0  0  0  0  0  0  0  0  0  0
    3.1950    9.4793    5.5399 S   0  0  0  0  0  0  0  0  0  0  0  0
    3.1439    8.1317    5.0587 O   0  0  0  0  0  0  0  0  0  0  0  0
    4.2354   10.3609    5.1074 O   0  0  0  0  0  0  0  0  0  0  0  0
    3.1895    9.4404    7.3026 C   0  0  0  0  0  0  0  0  0  0  0  0
    2.6746    8.3382    7.9694 C   0  0  0  0  0  0  0  0  0  0  0  0
    2.5568    8.3722    9.3479 C   0  0  0  0  0  0  0  0  0  0  0  0
    2.9524    9.4969   10.0749 C   0  0  0  0  0  0  0  0  0  0  0  0
    3.4877   10.5784    9.3875 C   0  0  0  0  0  0  0  0  0  0  0  0
    3.6079   10.5647    8.0055 C   0  0  0  0  0  0  0  0  0  0  0  0
    2.7765    9.5409   11.5649 C   0  0  0  0  0  0  0  0  0  0  0  0
  1  2  1  0
  3  2  1  0
  4  3  1  0
  5  4  1  0
  6  5  1  0
  7  6  2  0
  8  7  1  0
  9  8  2  0
 10  9  1  0
 11  6  1  0
 12  9  1  0
 13 12  1  0
 14 12  1  0
 15 12  1  0
 16 15  2  0
 17 16  1  0
 18 17  2  0
 19 18  1  0
 20 15  1  0
 21 18  1  0
 22 21  1  0
 23 21  1  0
 24 21  1  0
 25 24  2  0
 26 25  1  0
 27 26  2  0
 28 27  1  0
 29 24  1  0
 30 27  1  0
 31 30  1  0
 32 31  1  0
 33 32  1  0
 34 33  1  0
 35 34  1  0
 36 35  2  0
 37 36  1  0
 38 37  2  0
 39 38  1  0
 40 35  1  0
 41 38  1  0
 42 41  1  0
 43 41  1  0
 44 41  1  0
 45 44  2  0
 46 45  1  0
 47 46  2  0
 48 47  1  0
 49 44  1  0
 50 47  1  0
 51 50  1  0
 52 50  1  0
 53 50  1  0
 54 53  2  0
 55 54  1  0
 56  1  1  0
 57 56  1  0
 58 53  1  0
 59 34  1  0
 60 59  2  0
 61 59  2  0
 62 59  1  0
 63 62  2  0
 64 63  1  0
 65 64  2  0
 66 65  1  0
 67 62  1  0
 68 65  1  0
 69  1  1  0
 70 69  2  0
 71 69  2  0
 72 69  1  0
 73 72  2  0
 74 73  1  0
 75 74  2  0
 76 75  1  0
 77 72  1  0
 78 75  1  0
 10 11  2  0
 19 20  2  0
 28 29  2  0
 39 40  2  0
 48 49  2  0
 55 56  2  0
 57 58  2  0
 66 67  2  0
 76 77  2  0
M  END
>  <_TriposChargeType>  (156) 
NO_CHARGES

$$$$
POTTEY
     RDKit          3D

 33 34  0  0  0  0  0  0  0  0999 V2000
    7.5339    4.4227   14.7329 C   0  0  0  0  0  0  0  0  0  0  0  0
    7.3663    3.6079   15.8445 C   0  0  0  0  0  0  0  0  0  0  0  0
    8.4512    3.3718   16.6683 C   0  0  0  0  0  0  0  0  0  0  0  0
    9.6884    3.9433   16.4122 C   0  0  0  0  0  0  0  0  0  0  0  0
    9.8429    4.7682   15.3084 C   0  0  0  0  0  0  0  0  0  0  0  0
    8.7694    5.0088   14.4592 C   0  0  0  0  0  0  0  0  0  0  0  0
    7.9484    4.3140   19.7774 C   0  0  1  0  0  0  0  0  0  0  0  0
    6.4074    2.9867   21.2827 C   0  0  0  0  0  0  0  0  0  0  0  0
    7.3856    4.1566   21.1920 C   0  0  0  0  0  0  0  0  0  0  0  0
    6.7506    5.4598   21.6730 C   0  0  0  0  0  0  0  0  0  0  0  0
    8.9367    5.4778   19.7232 C   0  0  0  0  0  0  0  0  0  0  0  0
    9.4445    7.7481   18.9341 C   0  0  0  0  0  0  0  0  0  0  0  0
   10.2198    7.9184   17.6354 C   0  0  0  0  0  0  0  0  0  0  0  0
    9.3769    8.1750   16.3814 C   0  0  0  0  0  0  0  0  0  0  0  0
    8.5335    9.4208   16.4780 C   0  0  0  0  0  0  0  0  0  0  0  0
    8.0188    9.9378   15.1186 C   0  0  0  0  0  0  0  0  0  0  0  0
    6.3707    8.2200   14.4801 C   0  0  0  0  0  0  0  0  0  0  0  0
    5.9403    7.2953   13.3554 C   0  0  2  0  0  0  0  0  0  0  0  0
    3.5345    8.1289   13.1111 C   0  0  0  0  0  0  0  0  0  0  0  0
    4.8884    7.9547   12.4340 C   0  0  0  0  0  0  0  0  0  0  0  0
    4.7663    7.1747   11.1361 C   0  0  0  0  0  0  0  0  0  0  0  0
    8.6716    3.0982   19.3693 N   0  0  0  0  0  0  0  0  0  0  0  0
    8.6158    6.5341   18.9782 N   0  0  0  0  0  0  0  0  0  0  0  0
    7.4976    8.8841   14.2434 N   0  0  0  0  0  0  0  0  0  0  0  0
    5.4430    6.0175   13.8970 N   0  0  0  0  0  0  0  0  0  0  0  0
    5.2393    3.5907   13.9372 O   0  0  0  0  0  0  0  0  0  0  0  0
    6.7476    4.6956   12.2979 O   0  0  0  0  0  0  0  0  0  0  0  0
    6.8611    1.9541   18.1181 O   0  0  0  0  0  0  0  0  0  0  0  0
    9.2209    1.2212   17.9150 O   0  0  0  0  0  0  0  0  0  0  0  0
    9.9746    5.4055   20.3921 O   0  0  0  0  0  0  0  0  0  0  0  0
    5.7036    8.3424   15.5144 O   0  0  0  0  0  0  0  0  0  0  0  0
    6.1786    4.6326   13.6078 S   0  0  0  0  0  0  0  0  0  0  0  0
    8.2553    2.2732   18.0493 S   0  0  0  0  0  0  0  0  0  0  0  0
  1  2  2  0
  3  2  1  0
  4  3  2  0
  5  4  1  0
  6  1  1  0
  7  9  1  1
 10  9  1  0
 11  7  1  0
 13 12  1  0
 14 13  1  0
 15 14  1  0
 16 15  1  0
 17 18  1  0
 18 20  1  1
 21 20  1  0
 22  7  1  0
 23 11  1  0
 24 16  1  0
 25 18  1  0
 26 32  2  0
 27 32  2  0
 28 33  2  0
 29 33  2  0
 30 11  2  0
 31 17  2  0
 32  1  1  0
 33  3  1  0
  5  6  2  0
  8  9  1  0
 12 23  1  0
 17 24  1  0
 19 20  1  0
 22 33  1  0
 25 32  1  0
M  END
>  <_TriposChargeType>  (157) 
NO_CHARGES

$$$$
POVVIF
     RDKit          3D

 30 32  0  0  0  0  0  0  0  0999 V2000
    5.7467    3.3450    0.0106 I   0  0  0  0  0  0  0  0  0  0  0  0
    6.7718   -0.7017    2.1033 O   0  0  0  0  0  0  0  0  0  0  0  0
    8.6660    5.0610   -0.7340 O   0  0  0  0  0  0  0  0  0  0  0  0
    7.4599    2.7998    1.1292 C   0  0  0  0  0  0  0  0  0  0  0  0
    7.5298    1.5269    1.6532 C   0  0  0  0  0  0  0  0  0  0  0  0
    8.6489    1.1842    2.3950 C   0  0  0  0  0  0  0  0  0  0  0  0
    9.6542    2.1121    2.6345 C   0  0  0  0  0  0  0  0  0  0  0  0
    9.5592    3.3779    2.0921 C   0  0  0  0  0  0  0  0  0  0  0  0
    8.4562    3.7509    1.3327 C   0  0  0  0  0  0  0  0  0  0  0  0
    6.4335    0.4872    1.4370 C   0  0  0  0  0  0  0  0  0  0  0  0
    5.7654   -1.6994    1.9019 C   0  0  0  0  0  0  0  0  0  0  0  0
    6.1742   -2.9420    2.6767 C   0  0  0  0  0  0  0  0  0  0  0  0
    5.1944   -4.1076    2.4936 C   0  0  0  0  0  0  0  0  0  0  0  0
    8.4460    5.1263    0.6762 C   0  0  0  0  0  0  0  0  0  0  0  0
    5.1930   -4.6741    1.0848 C   0  0  0  0  0  0  0  0  0  0  0  0
    9.9790    4.6741   -1.0848 C   0  0  0  0  0  0  0  0  0  0  0  0
    9.9776    4.1076   -2.4936 C   0  0  0  0  0  0  0  0  0  0  0  0
    8.9978    2.9420   -2.6767 C   0  0  0  0  0  0  0  0  0  0  0  0
    9.4066    1.6994   -1.9019 C   0  0  0  0  0  0  0  0  0  0  0  0
    8.4002    0.7017   -2.1033 O   0  0  0  0  0  0  0  0  0  0  0  0
    8.7385   -0.4872   -1.4370 C   0  0  0  0  0  0  0  0  0  0  0  0
    7.6422   -1.5269   -1.6532 C   0  0  0  0  0  0  0  0  0  0  0  0
    7.7121   -2.7998   -1.1292 C   0  0  0  0  0  0  0  0  0  0  0  0
    9.4253   -3.3450   -0.0106 I   0  0  0  0  0  0  0  0  0  0  0  0
    6.7158   -3.7509   -1.3327 C   0  0  0  0  0  0  0  0  0  0  0  0
    5.6128   -3.3779   -2.0921 C   0  0  0  0  0  0  0  0  0  0  0  0
    5.5178   -2.1121   -2.6345 C   0  0  0  0  0  0  0  0  0  0  0  0
    6.5231   -1.1842   -2.3950 C   0  0  0  0  0  0  0  0  0  0  0  0
    6.7260   -5.1263   -0.6762 C   0  0  0  0  0  0  0  0  0  0  0  0
    6.5060   -5.0610    0.7340 O   0  0  0  0  0  0  0  0  0  0  0  0
  1  4  1  0
  2 10  1  0
  3 14  1  0
  4  5  2  0
  5  6  1  0
  6  7  2  0
  7  8  1  0
  8  9  2  0
  9  4  1  0
 10  5  1  0
 11  2  1  0
 12 11  1  0
 13 12  1  0
 14  9  1  0
 15 13  1  0
 16  3  1  0
 17 16  1  0
 18 17  1  0
 19 18  1  0
 20 19  1  0
 21 20  1  0
 22 21  1  0
 23 22  1  0
 24 23  1  0
 25 23  2  0
 26 25  1  0
 27 26  2  0
 28 22  2  0
 29 25  1  0
 30 15  1  0
 27 28  1  0
 29 30  1  0
M  END
>  <_TriposChargeType>  (158) 
NO_CHARGES

$$$$
POWYEG
     RDKit          3D

 54 56  0  0  0  0  0  0  0  0999 V2000
    9.8240    9.7328    6.6916 N   0  0  0  0  0  0  0  0  0  0  0  0
   10.3520   10.4225    5.5134 C   0  0  0  0  0  0  0  0  0  0  0  0
    9.3194   10.6515    4.4303 C   0  0  0  0  0  0  0  0  0  0  0  0
    8.4143   11.6888    4.8340 O   0  0  0  0  0  0  0  0  0  0  0  0
    7.3827   11.9273    3.8663 C   0  0  0  0  0  0  0  0  0  0  0  0
    6.0738   11.2577    4.2506 C   0  0  0  0  0  0  0  0  0  0  0  0
    6.1865    9.8018    4.3988 N   0  0  0  0  0  0  0  0  0  0  0  0
    6.2548    9.2517    5.7596 C   0  0  0  0  0  0  0  0  0  0  0  0
    4.8861    9.1414    6.4241 C   0  0  0  0  0  0  0  0  0  0  0  0
    4.9916    8.5056    7.7955 C   0  0  0  0  0  0  0  0  0  0  0  0
    5.8752    9.2799    8.6056 O   0  0  0  0  0  0  0  0  0  0  0  0
    5.7016    8.9882    9.9916 C   0  0  0  0  0  0  0  0  0  0  0  0
    6.8005    9.6178   10.8011 C   0  0  0  0  0  0  0  0  0  0  0  0
    7.9443    8.7671   10.7774 O   0  0  0  0  0  0  0  0  0  0  0  0
    8.9496    9.1440   11.7173 C   0  0  0  0  0  0  0  0  0  0  0  0
    9.8506   10.2458   11.2230 C   0  0  0  0  0  0  0  0  0  0  0  0
   10.5895    9.7578   10.1072 O   0  0  0  0  0  0  0  0  0  0  0  0
   11.1045   10.7916    9.2744 C   0  0  0  0  0  0  0  0  0  0  0  0
   10.0288   11.4896    8.4651 C   0  0  0  0  0  0  0  0  0  0  0  0
    9.1117   10.5470    7.6872 C   0  0  0  0  0  0  0  0  0  0  0  0
    9.9301    8.3768    6.7295 C   0  0  0  0  0  0  0  0  0  0  0  0
   10.5408    7.7421    5.8751 O   0  0  0  0  0  0  0  0  0  0  0  0
    9.2324    7.6590    7.8884 C   0  0  0  0  0  0  0  0  0  0  0  0
    9.5895    6.2878    7.9380 O   0  0  0  0  0  0  0  0  0  0  0  0
   10.8993    6.0939    8.4518 C   0  0  0  0  0  0  0  0  0  0  0  0
   11.1051    4.5961    8.6231 C   0  0  0  0  0  0  0  0  0  0  0  0
   11.1770    4.1026    9.7497 O   0  0  0  0  0  0  0  0  0  0  0  0
    7.5526    3.9212    5.2101 N   0  0  0  0  0  0  0  0  0  0  0  0
    7.0246    3.2315    6.3884 C   0  0  0  0  0  0  0  0  0  0  0  0
    8.0572    3.0025    7.4714 C   0  0  0  0  0  0  0  0  0  0  0  0
    8.9623    1.9651    7.0677 O   0  0  0  0  0  0  0  0  0  0  0  0
    9.9939    1.7267    8.0355 C   0  0  0  0  0  0  0  0  0  0  0  0
   11.3027    2.3963    7.6512 C   0  0  0  0  0  0  0  0  0  0  0  0
   11.1901    3.8521    7.5030 N   0  0  0  0  0  0  0  0  0  0  0  0
   11.1217    4.4023    6.1421 C   0  0  0  0  0  0  0  0  0  0  0  0
   12.4905    4.5126    5.4777 C   0  0  0  0  0  0  0  0  0  0  0  0
   12.3850    5.1484    4.1062 C   0  0  0  0  0  0  0  0  0  0  0  0
   11.5014    4.3741    3.2962 O   0  0  0  0  0  0  0  0  0  0  0  0
   11.6750    4.6657    1.9101 C   0  0  0  0  0  0  0  0  0  0  0  0
   10.5761    4.0361    1.1007 C   0  0  0  0  0  0  0  0  0  0  0  0
    9.4323    4.8868    1.1244 O   0  0  0  0  0  0  0  0  0  0  0  0
    8.4270    4.5100    0.1845 C   0  0  0  0  0  0  0  0  0  0  0  0
    7.5260    3.4082    0.6788 C   0  0  0  0  0  0  0  0  0  0  0  0
    6.7871    3.8962    1.7945 O   0  0  0  0  0  0  0  0  0  0  0  0
    6.2721    2.8624    2.6273 C   0  0  0  0  0  0  0  0  0  0  0  0
    7.3478    2.1644    3.4366 C   0  0  0  0  0  0  0  0  0  0  0  0
    8.2649    3.1069    4.2145 C   0  0  0  0  0  0  0  0  0  0  0  0
    7.4465    5.2771    5.1723 C   0  0  0  0  0  0  0  0  0  0  0  0
    6.8358    5.9118    6.0267 O   0  0  0  0  0  0  0  0  0  0  0  0
    8.1442    5.9949    4.0134 C   0  0  0  0  0  0  0  0  0  0  0  0
    7.7871    7.3661    3.9638 O   0  0  0  0  0  0  0  0  0  0  0  0
    6.4773    7.5600    3.4500 C   0  0  0  0  0  0  0  0  0  0  0  0
    6.2715    9.0578    3.2787 C   0  0  0  0  0  0  0  0  0  0  0  0
    6.1996    9.5514    2.1521 O   0  0  0  0  0  0  0  0  0  0  0  0
  1  2  1  0
  3  2  1  0
  4  3  1  0
  5  4  1  0
  6  5  1  0
  7  6  1  0
  8  7  1  0
  9  8  1  0
 10  9  1  0
 11 10  1  0
 12 11  1  0
 13 12  1  0
 14 13  1  0
 15 14  1  0
 16 15  1  0
 17 16  1  0
 18 17  1  0
 19 18  1  0
 20  1  1  0
 21  1  1  0
 22 21  2  0
 23 21  1  0
 24 23  1  0
 25 24  1  0
 26 25  1  0
 27 26  2  0
 28 29  1  0
 30 29  1  0
 31 30  1  0
 32 31  1  0
 33 32  1  0
 34 26  1  0
 35 34  1  0
 36 35  1  0
 37 36  1  0
 38 37  1  0
 39 38  1  0
 40 39  1  0
 41 40  1  0
 42 41  1  0
 43 42  1  0
 44 43  1  0
 45 44  1  0
 46 45  1  0
 47 28  1  0
 48 28  1  0
 49 48  2  0
 50 48  1  0
 51 50  1  0
 52 51  1  0
 53  7  1  0
 54 53  2  0
 19 20  1  0
 33 34  1  0
 46 47  1  0
 52 53  1  0
M  END
>  <_TriposChargeType>  (159) 
NO_CHARGES

$$$$
PUSLAQ
     RDKit          3D

 40 42  0  0  0  0  0  0  0  0999 V2000
   10.6902    8.5801   -1.5178 O   0  0  0  0  0  0  0  0  0  0  0  0
    9.8714    9.6634   -1.1565 C   0  0  0  0  0  0  0  0  0  0  0  0
    8.6665    9.1705   -0.4210 C   0  0  0  0  0  0  0  0  0  0  0  0
    9.0791    8.6143    0.8196 O   0  0  0  0  0  0  0  0  0  0  0  0
    7.9719    8.2746    1.6559 C   0  0  0  0  0  0  0  0  0  0  0  0
    8.4868    7.7006    2.9515 C   0  0  0  0  0  0  0  0  0  0  0  0
    9.1321    6.4179    2.7946 N   0  0  0  0  0  0  0  0  0  0  0  0
    8.4948    5.2568    2.9330 C   0  0  0  0  0  0  0  0  0  0  0  0
    9.3642    4.0383    2.7524 C   0  0  0  0  0  0  0  0  0  0  0  0
   10.6246    4.2459    2.3664 N   0  0  0  0  0  0  0  0  0  0  0  0
   11.3962    3.1768    2.1561 C   0  0  0  0  0  0  0  0  0  0  0  0
   12.7996    3.4477    1.6759 C   0  0  0  0  0  0  0  0  0  0  0  0
   13.1187    4.7345    1.5516 N   0  0  0  0  0  0  0  0  0  0  0  0
   14.3951    5.1796    1.0262 C   0  0  0  0  0  0  0  0  0  0  0  0
   11.9374    8.9616   -2.0947 C   0  0  0  0  0  0  0  0  0  0  0  0
    7.2985    5.1449    3.1771 O   0  0  0  0  0  0  0  0  0  0  0  0
   13.5700    2.5259    1.4080 O   0  0  0  0  0  0  0  0  0  0  0  0
    8.8388    2.7723    2.9722 C   0  0  0  0  0  0  0  0  0  0  0  0
    9.6545    1.6810    2.7643 C   0  0  0  0  0  0  0  0  0  0  0  0
   10.9501    1.8816    2.3396 C   0  0  0  0  0  0  0  0  0  0  0  0
   15.4460    5.2887    2.0947 C   0  0  0  0  0  0  0  0  0  0  0  0
   16.6932    5.6702    1.5178 O   0  0  0  0  0  0  0  0  0  0  0  0
   17.5120    4.5869    1.1565 C   0  0  0  0  0  0  0  0  0  0  0  0
   18.7169    5.0798    0.4210 C   0  0  0  0  0  0  0  0  0  0  0  0
   18.3043    5.6360   -0.8196 O   0  0  0  0  0  0  0  0  0  0  0  0
   19.4115    5.9757   -1.6559 C   0  0  0  0  0  0  0  0  0  0  0  0
   18.8966    6.5497   -2.9515 C   0  0  0  0  0  0  0  0  0  0  0  0
   18.2513    7.8324   -2.7946 N   0  0  0  0  0  0  0  0  0  0  0  0
   18.8886    8.9935   -2.9330 C   0  0  0  0  0  0  0  0  0  0  0  0
   18.0192   10.2120   -2.7524 C   0  0  0  0  0  0  0  0  0  0  0  0
   16.7588   10.0044   -2.3664 N   0  0  0  0  0  0  0  0  0  0  0  0
   15.9872   11.0735   -2.1561 C   0  0  0  0  0  0  0  0  0  0  0  0
   14.5838   10.8026   -1.6759 C   0  0  0  0  0  0  0  0  0  0  0  0
   14.2647    9.5158   -1.5516 N   0  0  0  0  0  0  0  0  0  0  0  0
   12.9883    9.0707   -1.0262 C   0  0  0  0  0  0  0  0  0  0  0  0
   13.8134   11.7244   -1.4080 O   0  0  0  0  0  0  0  0  0  0  0  0
   16.4333   12.3687   -2.3396 C   0  0  0  0  0  0  0  0  0  0  0  0
   17.7289   12.5693   -2.7643 C   0  0  0  0  0  0  0  0  0  0  0  0
   18.5446   11.4780   -2.9722 C   0  0  0  0  0  0  0  0  0  0  0  0
   20.0849    9.1054   -3.1771 O   0  0  0  0  0  0  0  0  0  0  0  0
  1  2  1  0
  3  2  1  0
  4  3  1  0
  5  4  1  0
  6  5  1  0
  7  6  1  0
  8  7  1  0
  9  8  1  0
 10  9  1  0
 11 10  2  0
 12 11  1  0
 13 12  1  0
 14 13  1  0
 15  1  1  0
 16  8  2  0
 17 12  2  0
 18  9  2  0
 19 18  1  0
 20 11  1  0
 21 14  1  0
 22 21  1  0
 23 22  1  0
 24 23  1  0
 25 24  1  0
 26 25  1  0
 27 26  1  0
 28 27  1  0
 29 28  1  0
 30 29  1  0
 31 30  1  0
 32 31  2  0
 33 32  1  0
 34 33  1  0
 35 15  1  0
 36 33  2  0
 37 32  1  0
 38 37  2  0
 39 30  2  0
 40 29  2  0
 19 20  2  0
 34 35  1  0
 38 39  1  0
M  END
>  <_TriposChargeType>  (160) 
NO_CHARGES

$$$$
QEDJOA
     RDKit          3D

 36 37  0  0  0  0  0  0  0  0999 V2000
    1.8381   14.2312    3.8838 S   0  0  0  0  0  0  0  0  0  0  0  0
    1.8800   12.2734    3.2999 S   0  0  0  0  0  0  0  0  0  0  0  0
    4.4118   14.1153   -1.6860 O   0  0  0  0  0  0  0  0  0  0  0  0
    5.1368   13.5510   -3.7386 O   0  0  0  0  0  0  0  0  0  0  0  0
    6.7063   17.6582   -1.2109 O   0  0  0  0  0  0  0  0  0  0  0  0
    4.4150   16.6732    1.0405 O   0  0  0  0  0  0  0  0  0  0  0  0
    6.2516   12.4791   -0.4466 O   0  0  0  0  0  0  0  0  0  0  0  0
    6.7049   13.3791    3.0537 O   0  0  0  0  0  0  0  0  0  0  0  0
    6.6296   15.3991   -1.0828 N   0  0  0  0  0  0  0  0  0  0  0  0
    6.3849   15.8352    1.7767 N   0  0  0  0  0  0  0  0  0  0  0  0
    4.9089   11.2272    0.8510 N   0  0  0  0  0  0  0  0  0  0  0  0
    4.6045   13.5258    2.2323 N   0  0  0  0  0  0  0  0  0  0  0  0
    3.4617   13.0070   -1.7110 C   0  0  2  0  0  0  0  0  0  0  0  0
    5.2552   14.1846   -2.7262 C   0  0  0  0  0  0  0  0  0  0  0  0
    6.3570   15.2157   -2.5033 C   0  0  2  0  0  0  0  0  0  0  0  0
    6.7890   16.6201   -0.5541 C   0  0  0  0  0  0  0  0  0  0  0  0
    7.1498   16.6497    0.9112 C   0  0  0  0  0  0  0  0  0  0  0  0
    5.0276   15.8892    1.7480 C   0  0  0  0  0  0  0  0  0  0  0  0
    4.3327   14.8821    2.6828 C   0  0  1  0  0  0  0  0  0  0  0  0
    2.8332   15.1418    2.6618 C   0  0  0  0  0  0  0  0  0  0  0  0
    0.4399   12.1138    2.1968 C   0  0  0  0  0  0  0  0  0  0  0  0
    0.5189   12.9118    0.8997 C   0  0  0  0  0  0  0  0  0  0  0  0
    1.7051   12.5476    0.0401 C   0  0  0  0  0  0  0  0  0  0  0  0
    2.3882   13.3858   -0.7259 C   0  0  0  0  0  0  0  0  0  0  0  0
    4.2104   11.6921   -1.4440 C   0  0  0  0  0  0  0  0  0  0  0  0
    5.2182   11.8191   -0.3158 C   0  0  0  0  0  0  0  0  0  0  0  0
    5.7920   11.4122    1.9984 C   0  0  1  0  0  0  0  0  0  0  0  0
    5.7448   12.8650    2.4871 C   0  0  0  0  0  0  0  0  0  0  0  0
    7.6249   14.8774   -3.3151 C   0  0  0  0  0  0  0  0  0  0  0  0
    8.6180   16.0371   -3.2370 C   0  0  0  0  0  0  0  0  0  0  0  0
    8.2787   13.5747   -2.8880 C   0  0  0  0  0  0  0  0  0  0  0  0
    8.1749   17.3918    1.3207 C   0  0  0  0  0  0  0  0  0  0  0  0
    8.6238   17.5370    2.7401 C   0  0  0  0  0  0  0  0  0  0  0  0
    5.4655   10.3727    3.0900 C   0  0  0  0  0  0  0  0  0  0  0  0
    5.8288    8.9806    2.5777 C   0  0  0  0  0  0  0  0  0  0  0  0
    6.2079   10.6662    4.3928 C   0  0  0  0  0  0  0  0  0  0  0  0
  1  2  1  0
  2 21  1  0
 13  3  1  0
  4 14  2  0
  5 16  2  0
  6 18  2  0
  7 26  2  0
  8 28  2  0
 14  3  1  0
 15  9  1  0
 16  9  1  0
 17 10  1  0
 18 10  1  0
 19 12  1  0
 20  1  1  0
 22 21  1  0
 23 22  1  0
 13 24  1  1
 25 13  1  0
 26 11  1  0
 27 11  1  0
 28 12  1  0
 15 29  1  6
 30 29  1  0
 31 29  1  0
 32 17  2  0
 33 32  1  0
 27 34  1  1
 35 34  1  0
 36 34  1  0
 14 15  1  0
 16 17  1  0
 19 18  1  0
 19 20  1  6
 23 24  2  0
 25 26  1  0
 27 28  1  0
M  END
$$$$
QIQYEU
     RDKit          3D

 24 26  0  0  0  0  0  0  0  0999 V2000
   10.1600   13.5732    4.7455 O   0  0  0  0  0  0  0  0  0  0  0  0
   12.0332   11.8131    3.6960 O   0  0  0  0  0  0  0  0  0  0  0  0
    8.6926   16.0538    5.3394 O   0  0  0  0  0  0  0  0  0  0  0  0
    9.2418   17.4486    3.6966 O   0  0  0  0  0  0  0  0  0  0  0  0
   10.8199   15.6769    6.3988 C   0  0  2  0  0  0  0  0  0  0  0  0
   11.8051   14.5177    6.3106 C   0  0  0  0  0  0  0  0  0  0  0  0
   11.5789   13.7026    5.0372 C   0  0  1  0  0  0  0  0  0  0  0  0
   12.2236   12.3182    5.0146 C   0  0  1  0  0  0  0  0  0  0  0  0
   11.5394   11.3712    5.9869 C   0  0  0  0  0  0  0  0  0  0  0  0
   11.9794    9.9171    5.9962 C   0  0  0  0  0  0  0  0  0  0  0  0
   10.9660    9.0771    6.7975 C   0  0  0  0  0  0  0  0  0  0  0  0
    9.6087    8.9242    6.1093 C   0  0  0  0  0  0  0  0  0  0  0  0
    8.3697    9.4148    6.8058 C   0  0  0  0  0  0  0  0  0  0  0  0
    8.1999   10.9405    6.8907 C   0  0  0  0  0  0  0  0  0  0  0  0
    7.9785   11.6095    5.5457 C   0  0  0  0  0  0  0  0  0  0  0  0
    7.9268   13.1489    5.5567 C   0  0  1  0  0  0  0  0  0  0  0  0
    9.3000   13.7474    5.8799 C   0  0  2  0  0  0  0  0  0  0  0  0
    9.3507   15.1878    6.3040 C   0  0  2  0  0  0  0  0  0  0  0  0
   10.9164   16.6406    5.2319 C   0  0  0  0  0  0  0  0  0  0  0  0
    9.5772   16.7902    4.6286 C   0  0  0  0  0  0  0  0  0  0  0  0
   11.9462   17.2747    4.7565 C   0  0  0  0  0  0  0  0  0  0  0  0
   13.7157   12.4150    5.2391 C   0  0  0  0  0  0  0  0  0  0  0  0
    9.5209    8.2844    4.9539 C   0  0  0  0  0  0  0  0  0  0  0  0
    7.3373   13.6395    4.2315 C   0  0  0  0  0  0  0  0  0  0  0  0
  1  7  1  0
  8  2  1  0
 18  3  1  6
  4 20  2  0
  5  6  1  6
  7  6  1  1
  7  8  1  0
  8  9  1  0
  9 10  1  0
 10 11  1  0
 11 12  1  0
 12 13  1  0
 13 14  1  0
 14 15  1  0
 15 16  1  0
 16 17  1  0
 17  1  1  6
 18  5  1  0
 19  5  1  0
 20  3  1  0
 21 19  2  0
  8 22  1  1
 23 12  2  0
 16 24  1  6
 17 18  1  0
 19 20  1  0
M  END
>  <_TriposChargeType>  (162) 
NO_CHARGES

$$$$
QIRRUE
     RDKit          3D

 43 46  0  0  0  0  0  0  0  0999 V2000
    2.3974    1.0461    1.1921 N   0  0  0  0  0  0  0  0  0  0  0  0
    1.4086    0.5374    2.1845 C   0  0  2  0  0  0  0  0  0  0  0  0
    0.9480   -0.8241    1.6427 C   0  0  0  0  0  0  0  0  0  0  0  0
    0.1539   -0.8811    0.6974 O   0  0  0  0  0  0  0  0  0  0  0  0
    1.5311   -1.9343    2.1460 N   0  0  0  0  0  0  0  0  0  0  0  0
    2.3295   -2.0210    3.3883 C   0  0  0  0  0  0  0  0  0  0  0  0
    2.7237   -3.4998    3.4687 C   0  0  0  0  0  0  0  0  0  0  0  0
    1.5982   -4.2148    2.7202 C   0  0  0  0  0  0  0  0  0  0  0  0
    1.2529   -3.2689    1.5707 C   0  0  2  0  0  0  0  0  0  0  0  0
    2.1614   -3.4145    0.3462 C   0  0  0  0  0  0  0  0  0  0  0  0
    3.3586   -3.7134    0.4581 O   0  0  0  0  0  0  0  0  0  0  0  0
    1.5899   -3.1323   -0.8323 N   0  0  0  0  0  0  0  0  0  0  0  0
    2.3590   -2.8871   -2.0426 C   0  0  2  0  0  0  0  0  0  0  0  0
    2.8510   -1.4227   -2.1330 C   0  0  0  0  0  0  0  0  0  0  0  0
    3.7529   -1.1314   -2.9096 O   0  0  0  0  0  0  0  0  0  0  0  0
    2.2272   -0.5429   -1.3374 N   0  0  0  0  0  0  0  0  0  0  0  0
    2.4955    0.8919   -1.3539 C   0  0  2  0  0  0  0  0  0  0  0  0
    1.8904    1.5397   -0.1111 C   0  0  0  0  0  0  0  0  0  0  0  0
    0.2431    1.4924    2.4690 C   0  0  1  0  0  0  0  0  0  0  0  0
   -0.6651    0.8609    3.5129 C   0  0  0  0  0  0  0  0  0  0  0  0
    0.7548    2.8669    2.9215 C   0  0  0  0  0  0  0  0  0  0  0  0
   -0.2944    3.9667    2.8764 C   0  0  0  0  0  0  0  0  0  0  0  0
    1.5808   -3.2785   -3.2908 C   0  0  0  0  0  0  0  0  0  0  0  0
    1.4270   -4.7876   -3.4459 C   0  0  0  0  0  0  0  0  0  0  0  0
    1.9363    1.5555   -2.6226 C   0  0  0  0  0  0  0  0  0  0  0  0
    0.4747    1.2615   -2.8832 C   0  0  0  0  0  0  0  0  0  0  0  0
    0.1090    0.1747   -3.6838 C   0  0  0  0  0  0  0  0  0  0  0  0
   -1.2203   -0.1449   -3.8923 C   0  0  0  0  0  0  0  0  0  0  0  0
   -2.2124    0.6129   -3.2993 C   0  0  0  0  0  0  0  0  0  0  0  0
   -1.8701    1.7058   -2.5343 C   0  0  0  0  0  0  0  0  0  0  0  0
   -0.5378    2.0346   -2.3286 C   0  0  0  0  0  0  0  0  0  0  0  0
    3.8062    1.6765    1.7380 S   0  0  0  0  0  0  0  0  0  0  0  0
    4.0379    2.9282    1.0821 O   0  0  0  0  0  0  0  0  0  0  0  0
    3.8086    1.5826    3.1551 O   0  0  0  0  0  0  0  0  0  0  0  0
    5.0754    0.5916    1.1155 C   0  0  0  0  0  0  0  0  0  0  0  0
    6.3946    1.0263    0.9644 C   0  0  0  0  0  0  0  0  0  0  0  0
    7.3725    0.2258    0.4272 C   0  0  0  0  0  0  0  0  0  0  0  0
    7.0455   -1.0685    0.0308 C   0  0  0  0  0  0  0  0  0  0  0  0
    5.7458   -1.5232    0.1798 C   0  0  0  0  0  0  0  0  0  0  0  0
    4.7598   -0.6933    0.7144 C   0  0  0  0  0  0  0  0  0  0  0  0
    6.8126    2.3713    1.4090 N   0  0  0  0  0  0  0  0  0  0  0  0
    7.4282    3.0481    0.6076 O   0  0  0  0  0  0  0  0  0  0  0  0
    6.5663    2.6974    2.5568 O   0  0  0  0  0  0  0  0  0  0  0  0
  2  1  1  0
  2  3  1  6
  4  3  2  0
  5  3  1  0
  6  5  1  0
  7  6  1  0
  8  7  1  0
  9  5  1  0
  9 10  1  0
 11 10  2  0
 12 10  1  0
 13 12  1  0
 14 13  1  0
 15 14  2  0
 16 14  1  0
 17 16  1  0
 18  1  1  0
 19  2  1  0
 19 20  1  1
 21 19  1  0
 22 21  1  0
 13 23  1  6
 24 23  1  0
 17 25  1  6
 26 25  1  0
 27 26  2  0
 28 27  1  0
 29 28  2  0
 30 29  1  0
 31 26  1  0
 32  1  1  0
 33 32  2  0
 34 32  2  0
 35 32  1  0
 36 35  2  0
 37 36  1  0
 38 37  2  0
 39 38  1  0
 40 35  1  0
 41 36  1  0
 42 41  2  0
 43 41  1  0
  9  8  1  1
 17 18  1  0
 30 31  2  0
 39 40  2  0
M  CHG  2  41   1  43  -1
M  END
>  <_TriposChargeType>  (163) 
NO_CHARGES

$$$$
QODWEM
     RDKit          3D

 28 29  0  0  0  0  0  0  0  0999 V2000
    0.4395    7.9275    5.0014 S   0  0  0  0  0  0  0  0  0  0  0  0
    2.6405    1.1006    1.4285 S   0  0  0  0  0  0  0  0  0  0  0  0
    1.5312    2.9512    4.8218 O   0  0  0  0  0  0  0  0  0  0  0  0
    0.3700    4.8565    6.1689 O   0  0  0  0  0  0  0  0  0  0  0  0
    2.8213    6.1858    3.5657 O   0  0  0  0  0  0  0  0  0  0  0  0
    5.4908    5.7547    2.5600 O   0  0  0  0  0  0  0  0  0  0  0  0
    5.0661    3.2048    1.3361 O   0  0  0  0  0  0  0  0  0  0  0  0
    3.1816    0.9477   10.1914 O   0  0  0  0  0  0  0  0  0  0  0  0
    3.6195   -0.0220    8.2934 O   0  0  0  0  0  0  0  0  0  0  0  0
    3.0867    0.8753    8.9585 N   0  0  0  0  0  0  0  0  0  0  0  0
    2.2165    1.9386    4.0471 C   0  0  0  0  0  0  0  0  0  0  0  0
    1.6180    2.8630    6.1869 C   0  0  0  0  0  0  0  0  0  0  0  0
    2.2806    1.8514    6.8623 C   0  0  0  0  0  0  0  0  0  0  0  0
    2.3357    1.9160    8.2541 C   0  0  0  0  0  0  0  0  0  0  0  0
    1.7323    2.9145    8.9866 C   0  0  0  0  0  0  0  0  0  0  0  0
    1.0324    3.9095    8.3073 C   0  0  0  0  0  0  0  0  0  0  0  0
    0.9854    3.9022    6.9169 C   0  0  0  0  0  0  0  0  0  0  0  0
   -0.2563    5.9500    6.8858 C   0  0  0  0  0  0  0  0  0  0  0  0
   -0.7980    6.9242    5.8776 C   0  0  0  0  0  0  0  0  0  0  0  0
    0.5409    7.1235    3.3763 C   0  0  0  0  0  0  0  0  0  0  0  0
    1.4598    5.9218    3.2739 C   0  0  0  0  0  0  0  0  0  0  0  0
    3.4273    7.0941    2.6463 C   0  0  0  0  0  0  0  0  0  0  0  0
    4.9196    7.0355    2.8292 C   0  0  0  0  0  0  0  0  0  0  0  0
    5.6600    5.5163    1.1750 C   0  0  0  0  0  0  0  0  0  0  0  0
    6.1077    4.0944    0.9596 C   0  0  0  0  0  0  0  0  0  0  0  0
    5.3097    1.8692    0.9023 C   0  0  0  0  0  0  0  0  0  0  0  0
    4.4362    0.9135    1.6749 C   0  0  0  0  0  0  0  0  0  0  0  0
    2.1695    2.4097    2.6001 C   0  0  0  0  0  0  0  0  0  0  0  0
  1 19  1  0
  2 27  1  0
  3 11  1  0
  4 17  1  0
  5 21  1  0
  6 23  1  0
  7 25  1  0
  8 10  2  0
  9 10  1  0
 10 14  1  0
 11 28  1  0
 12  3  1  0
 13 12  1  0
 14 13  2  0
 15 14  1  0
 16 15  2  0
 17 12  2  0
 18  4  1  0
 19 18  1  0
 20  1  1  0
 21 20  1  0
 22  5  1  0
 23 22  1  0
 24  6  1  0
 25 24  1  0
 26  7  1  0
 27 26  1  0
 28  2  1  0
 16 17  1  0
M  CHG  2   9  -1  10   1
M  END
>  <_TriposChargeType>  (164) 
NO_CHARGES

$$$$
QOSNAN
     RDKit          3D

 50 54  0  0  0  0  0  0  0  0999 V2000
    2.6421   -2.0726   12.5255 N   0  0  0  0  0  0  0  0  0  0  0  0
    2.8766   -2.5591   13.8703 C   0  0  1  0  0  0  0  0  0  0  0  0
    3.2262   -4.0209   13.8303 C   0  0  0  0  0  0  0  0  0  0  0  0
    3.9935   -1.7471   14.5250 C   0  0  0  0  0  0  0  0  0  0  0  0
    5.1272   -2.1848   14.6853 O   0  0  0  0  0  0  0  0  0  0  0  0
    3.6366   -0.5096   14.9088 N   0  0  0  0  0  0  0  0  0  0  0  0
    4.4782    0.3121   15.7552 C   0  0  2  0  0  0  0  0  0  0  0  0
    3.8156    0.5328   17.1126 C   0  0  2  0  0  0  0  0  0  0  0  0
    3.5989   -0.7705   17.8653 C   0  0  0  0  0  0  0  0  0  0  0  0
    2.5762    1.2009   16.8796 O   0  0  0  0  0  0  0  0  0  0  0  0
    4.8729    1.6374   15.1314 C   0  0  0  0  0  0  0  0  0  0  0  0
    5.5030    2.4591   15.7851 O   0  0  0  0  0  0  0  0  0  0  0  0
    4.5463    1.8373   13.8517 N   0  0  0  0  0  0  0  0  0  0  0  0
    5.0372    2.9614   13.0933 C   0  0  1  0  0  0  0  0  0  0  0  0
    6.5697    2.8993   12.8589 C   0  0  0  0  0  0  0  0  0  0  0  0
    7.2535    1.2177   12.8102 S   0  0  0  0  0  0  0  0  0  0  0  0
    4.2458    2.9834   11.7925 C   0  0  0  0  0  0  0  0  0  0  0  0
    3.8072    1.9282   11.3243 O   0  0  0  0  0  0  0  0  0  0  0  0
    4.0783    4.1599   11.1722 N   0  0  0  0  0  0  0  0  0  0  0  0
    3.1571    4.2428   10.0306 C   0  0  1  0  0  0  0  0  0  0  0  0
    3.1184    5.7632    9.7475 C   0  0  0  0  0  0  0  0  0  0  0  0
    4.3589    6.3301   10.4094 C   0  0  2  0  0  0  0  0  0  0  0  0
    5.5240    6.1118    9.6215 O   0  0  0  0  0  0  0  0  0  0  0  0
    4.5044    5.4754   11.6434 C   0  0  0  0  0  0  0  0  0  0  0  0
    3.5780    3.4101    8.8165 C   0  0  0  0  0  0  0  0  0  0  0  0
    2.7342    2.8481    8.1454 O   0  0  0  0  0  0  0  0  0  0  0  0
    4.8886    3.3028    8.5614 N   0  0  0  0  0  0  0  0  0  0  0  0
    5.3575    2.5384    7.4244 C   0  0  1  0  0  0  0  0  0  0  0  0
    6.8272    2.8541    7.1528 C   0  0  0  0  0  0  0  0  0  0  0  0
    5.1953    1.0412    7.6405 C   0  0  0  0  0  0  0  0  0  0  0  0
    5.2183    0.2646    6.6893 O   0  0  0  0  0  0  0  0  0  0  0  0
    5.0644    0.6328    8.9024 N   0  0  0  0  0  0  0  0  0  0  0  0
    5.1471   -0.7547    9.3061 C   0  0  1  0  0  0  0  0  0  0  0  0
    6.1688   -0.9046   10.4625 C   0  0  0  0  0  0  0  0  0  0  0  0
    7.3705   -0.0439   10.3025 C   0  0  0  0  0  0  0  0  0  0  0  0
    8.2708   -0.0110    9.1852 C   0  0  0  0  0  0  0  0  0  0  0  0
    7.7871    0.9315   11.1755 C   0  0  0  0  0  0  0  0  0  0  0  0
    8.8978    1.5655   10.6599 N   0  0  0  0  0  0  0  0  0  0  0  0
    8.4037   -0.7632    8.0114 C   0  0  0  0  0  0  0  0  0  0  0  0
    9.2014    1.0229    9.4450 C   0  0  0  0  0  0  0  0  0  0  0  0
    9.4348   -0.4340    7.1457 C   0  0  0  0  0  0  0  0  0  0  0  0
   10.2272    1.3484    8.5668 C   0  0  0  0  0  0  0  0  0  0  0  0
   10.3162    0.5755    7.4206 C   0  0  0  0  0  0  0  0  0  0  0  0
    3.8365   -1.3460    9.7853 C   0  0  0  0  0  0  0  0  0  0  0  0
    3.7915   -2.5799    9.9888 O   0  0  0  0  0  0  0  0  0  0  0  0
    2.8462   -0.5047   10.0566 N   0  0  0  0  0  0  0  0  0  0  0  0
    1.5807   -0.8059   10.7584 C   0  0  1  0  0  0  0  0  0  0  0  0
    0.7809   -1.9056   10.0949 C   0  0  0  0  0  0  0  0  0  0  0  0
    1.8120   -1.0534   12.2465 C   0  0  0  0  0  0  0  0  0  0  0  0
    1.2781   -0.3694   13.1080 O   0  0  0  0  0  0  0  0  0  0  0  0
  2  1  1  0
  2  3  1  6
  4  2  1  0
  5  4  2  0
  6  4  1  0
  7  6  1  6
  8  7  1  0
  8  9  1  6
 10  8  1  0
 11  7  1  0
 12 11  2  0
 13 11  1  0
 14 13  1  1
 15 14  1  0
 16 15  1  0
 17 14  1  0
 18 17  2  0
 19 17  1  0
 20 19  1  0
 20 21  1  6
 22 21  1  0
 22 23  1  6
 24 19  1  0
 25 20  1  0
 26 25  2  0
 27 25  1  0
 28 27  1  0
 28 29  1  1
 30 28  1  0
 31 30  2  0
 32 30  1  0
 33 32  1  1
 34 33  1  0
 35 34  1  0
 36 35  1  0
 37 16  1  0
 38 37  1  0
 39 36  2  0
 40 36  1  0
 41 39  1  0
 42 40  2  0
 43 41  2  0
 44 33  1  0
 45 44  2  0
 46 44  1  0
 47 46  1  0
 47 48  1  6
 49  1  1  0
 50 49  2  0
 22 24  1  0
 35 37  2  0
 38 40  1  0
 42 43  1  0
 47 49  1  0
M  END
>  <_TriposChargeType>  (165) 
NO_CHARGES

$$$$
RIVLUE
     RDKit          3D

 78 84  0  0  0  0  0  0  0  0999 V2000
    8.2553    5.1165    5.3776 N   0  0  0  0  0  0  0  0  0  0  0  0
    8.9527    5.9076    6.4052 C   0  0  2  0  0  0  0  0  0  0  0  0
    9.5856    5.0318    7.4773 C   0  0  0  0  0  0  0  0  0  0  0  0
    7.1436    4.2670    5.8317 C   0  0  0  0  0  0  0  0  0  0  0  0
    8.0268    6.9792    6.9835 C   0  0  0  0  0  0  0  0  0  0  0  0
    8.0808    7.3064    8.1650 O   0  0  0  0  0  0  0  0  0  0  0  0
    7.2078    7.5594    6.0920 N   0  0  0  0  0  0  0  0  0  0  0  0
    6.3335    8.6603    6.4443 C   0  0  1  0  0  0  0  0  0  0  0  0
    6.4152    9.7817    5.4187 C   0  0  0  0  0  0  0  0  0  0  0  0
    7.6968   10.3763    5.5074 O   0  0  0  0  0  0  0  0  0  0  0  0
    7.9096   11.3649    4.5030 C   0  0  0  0  0  0  0  0  0  0  0  0
    4.8583    8.2789    6.6082 C   0  0  0  0  0  0  0  0  0  0  0  0
    4.1840    8.8461    7.4596 O   0  0  0  0  0  0  0  0  0  0  0  0
    7.0845   12.6141    4.6868 C   0  0  0  0  0  0  0  0  0  0  0  0
    6.5984   13.2909    3.5733 C   0  0  0  0  0  0  0  0  0  0  0  0
    5.8790   14.4583    3.7152 C   0  0  0  0  0  0  0  0  0  0  0  0
    5.6088   14.9654    4.9657 C   0  0  0  0  0  0  0  0  0  0  0  0
    6.0786   14.3035    6.0804 C   0  0  0  0  0  0  0  0  0  0  0  0
    6.8142   13.1317    5.9472 C   0  0  0  0  0  0  0  0  0  0  0  0
    4.3529    7.3936    5.7515 N   0  0  0  0  0  0  0  0  0  0  0  0
    2.9144    7.1538    5.6532 C   0  0  1  0  0  0  0  0  0  0  0  0
    2.3822    7.7023    4.3316 C   0  0  0  0  0  0  0  0  0  0  0  0
    0.8609    7.5433    4.2462 C   0  0  2  0  0  0  0  0  0  0  0  0
    0.4633    6.0731    4.4266 C   0  0  0  0  0  0  0  0  0  0  0  0
    1.0272    5.5334    5.7479 C   0  0  0  0  0  0  0  0  0  0  0  0
    2.5498    5.6778    5.8175 C   0  0  0  0  0  0  0  0  0  0  0  0
    0.3393    8.1796    2.9602 C   0  0  0  0  0  0  0  0  0  0  0  0
    1.0789    8.8502    2.2255 O   0  0  0  0  0  0  0  0  0  0  0  0
   -0.9486    8.0328    2.6631 N   0  0  0  0  0  0  0  0  0  0  0  0
   -1.4705    8.6139    1.4336 C   0  0  1  0  0  0  0  0  0  0  0  0
   -2.9695    8.3363    1.2903 C   0  0  0  0  0  0  0  0  0  0  0  0
   -3.4902    8.8716   -0.0255 C   0  0  0  0  0  0  0  0  0  0  0  0
   -3.0511    8.2957   -1.2171 C   0  0  0  0  0  0  0  0  0  0  0  0
   -3.4792    8.7917   -2.4488 C   0  0  0  0  0  0  0  0  0  0  0  0
   -4.3717    9.8480   -2.4988 C   0  0  0  0  0  0  0  0  0  0  0  0
   -4.8266   10.4112   -1.3194 C   0  0  0  0  0  0  0  0  0  0  0  0
   -4.3822    9.9347   -0.0971 C   0  0  0  0  0  0  0  0  0  0  0  0
   -1.2668   10.1369    1.4609 C   0  0  0  0  0  0  0  0  0  0  0  0
   -1.7168   10.7850    2.3971 O   0  0  0  0  0  0  0  0  0  0  0  0
   -0.6624   10.7239    0.3956 N   0  0  0  0  0  0  0  0  0  0  0  0
   -0.5783   12.1901    0.3621 C   0  0  2  0  0  0  0  0  0  0  0  0
   -1.1571   12.7447   -0.9307 C   0  0  0  0  0  0  0  0  0  0  0  0
    0.0382   10.0043   -0.6642 C   0  0  0  0  0  0  0  0  0  0  0  0
    0.8730   12.6404    0.5614 C   0  0  0  0  0  0  0  0  0  0  0  0
    1.4014   13.4826   -0.1416 O   0  0  0  0  0  0  0  0  0  0  0  0
    1.5098   12.0507    1.5911 N   0  0  0  0  0  0  0  0  0  0  0  0
    2.8998   12.3266    1.9140 C   0  0  1  0  0  0  0  0  0  0  0  0
    3.0923   12.3582    3.4312 C   0  0  0  0  0  0  0  0  0  0  0  0
    2.3514   11.3419    4.0131 O   0  0  0  0  0  0  0  0  0  0  0  0
    2.2380   11.4798    5.4323 C   0  0  0  0  0  0  0  0  0  0  0  0
    3.8700   11.3690    1.2075 C   0  0  0  0  0  0  0  0  0  0  0  0
    4.9043   11.8173    0.6916 O   0  0  0  0  0  0  0  0  0  0  0  0
    1.0550   10.6965    5.9343 C   0  0  0  0  0  0  0  0  0  0  0  0
    1.1374    9.9810    7.1319 C   0  0  0  0  0  0  0  0  0  0  0  0
    0.0556    9.3136    7.6188 C   0  0  0  0  0  0  0  0  0  0  0  0
   -1.1400    9.3142    6.9395 C   0  0  0  0  0  0  0  0  0  0  0  0
   -1.2360   10.0151    5.7375 C   0  0  0  0  0  0  0  0  0  0  0  0
   -0.1557   10.7168    5.2514 C   0  0  0  0  0  0  0  0  0  0  0  0
    3.5182   10.0861    1.1919 N   0  0  0  0  0  0  0  0  0  0  0  0
    4.3106    9.0224    0.5727 C   0  0  1  0  0  0  0  0  0  0  0  0
    5.1208    8.3038    1.6458 C   0  0  0  0  0  0  0  0  0  0  0  0
    5.8319    7.0493    1.1265 C   0  0  2  0  0  0  0  0  0  0  0  0
    4.8458    6.1137    0.3905 C   0  0  0  0  0  0  0  0  0  0  0  0
    4.1183    6.8760   -0.7151 C   0  0  0  0  0  0  0  0  0  0  0  0
    3.3575    8.0670   -0.1559 C   0  0  0  0  0  0  0  0  0  0  0  0
    6.4651    6.2923    2.2894 C   0  0  0  0  0  0  0  0  0  0  0  0
    6.1955    6.5473    3.4751 O   0  0  0  0  0  0  0  0  0  0  0  0
    7.3142    5.3137    1.9780 N   0  0  0  0  0  0  0  0  0  0  0  0
    7.8698    4.4606    3.0190 C   0  0  1  0  0  0  0  0  0  0  0  0
    8.9142    3.5209    2.4062 C   0  0  0  0  0  0  0  0  0  0  0  0
    9.4014    2.4999    3.4099 C   0  0  0  0  0  0  0  0  0  0  0  0
    8.6628    1.3509    3.6405 C   0  0  0  0  0  0  0  0  0  0  0  0
    9.0801    0.4132    4.5859 C   0  0  0  0  0  0  0  0  0  0  0  0
   10.2224    0.6378    5.3187 C   0  0  0  0  0  0  0  0  0  0  0  0
   10.9602    1.7849    5.1063 C   0  0  0  0  0  0  0  0  0  0  0  0
   10.5585    2.7067    4.1496 C   0  0  0  0  0  0  0  0  0  0  0  0
    8.5546    5.3279    4.0841 C   0  0  0  0  0  0  0  0  0  0  0  0
    9.3936    6.1513    3.7210 O   0  0  0  0  0  0  0  0  0  0  0  0
  1  2  1  0
  2  3  1  1
  4  1  1  0
  5  2  1  0
  6  5  2  0
  7  5  1  0
  8  7  1  0
  8  9  1  6
 10  9  1  0
 11 10  1  0
 12  8  1  0
 13 12  2  0
 14 11  1  0
 15 14  2  0
 16 15  1  0
 17 16  2  0
 18 17  1  0
 19 14  1  0
 20 12  1  0
 21 20  1  0
 22 21  1  0
 23 22  1  0
 23 24  1  6
 25 24  1  0
 21 26  1  6
 27 23  1  0
 28 27  2  0
 29 27  1  0
 30 29  1  0
 30 31  1  1
 32 31  1  0
 33 32  2  0
 34 33  1  0
 35 34  2  0
 36 35  1  0
 37 32  1  0
 38 30  1  0
 39 38  2  0
 40 38  1  0
 41 40  1  0
 41 42  1  6
 43 40  1  0
 44 41  1  0
 45 44  2  0
 46 44  1  0
 47 46  1  0
 47 48  1  1
 49 48  1  0
 50 49  1  0
 51 47  1  0
 52 51  2  0
 53 50  1  0
 54 53  2  0
 55 54  1  0
 56 55  2  0
 57 56  1  0
 58 53  1  0
 59 51  1  0
 60 59  1  0
 61 60  1  0
 62 61  1  0
 62 63  1  1
 64 63  1  0
 60 65  1  1
 66 62  1  0
 67 66  2  0
 68 66  1  0
 69 68  1  0
 69 70  1  6
 71 70  1  0
 72 71  2  0
 73 72  1  0
 74 73  2  0
 75 74  1  0
 76 71  1  0
 77  1  1  0
 78 77  2  0
 18 19  2  0
 25 26  1  0
 36 37  2  0
 57 58  2  0
 64 65  1  0
 69 77  1  0
 75 76  2  0
M  END
>  <_TriposChargeType>  (166) 
NO_CHARGES

$$$$
RIWYAX
     RDKit          3D

 34 37  0  0  0  0  0  0  0  0999 V2000
    3.2068    6.2810    0.5103 S   0  0  0  0  0  0  0  0  0  0  0  0
    1.3997    0.4441    1.6628 S   0  0  0  0  0  0  0  0  0  0  0  0
    9.2494    5.0847    2.8761 O   0  0  0  0  0  0  0  0  0  0  0  0
   11.4506    4.0148    4.4135 O   0  0  0  0  0  0  0  0  0  0  0  0
    9.8879    1.7355    5.3237 O   0  0  0  0  0  0  0  0  0  0  0  0
    7.5300    0.6016    4.2041 O   0  0  0  0  0  0  0  0  0  0  0  0
    0.6906    3.5373    0.7765 C   0  0  0  0  0  0  0  0  0  0  0  0
   -0.0965    2.8266    1.6840 C   0  0  0  0  0  0  0  0  0  0  0  0
   -0.7711    3.5288    2.6594 C   0  0  0  0  0  0  0  0  0  0  0  0
   -0.6889    4.9122    2.7128 C   0  0  0  0  0  0  0  0  0  0  0  0
    0.0858    5.6025    1.8004 C   0  0  0  0  0  0  0  0  0  0  0  0
    0.7810    4.9226    0.8189 C   0  0  0  0  0  0  0  0  0  0  0  0
    1.6469    5.6366   -0.1716 C   0  0  0  0  0  0  0  0  0  0  0  0
    3.8727    4.7410    1.1498 C   0  0  0  0  0  0  0  0  0  0  0  0
    5.2954    4.9104    1.6277 C   0  0  0  0  0  0  0  0  0  0  0  0
    5.5795    5.4238    2.8510 C   0  0  0  0  0  0  0  0  0  0  0  0
    6.8844    5.5225    3.3256 C   0  0  0  0  0  0  0  0  0  0  0  0
    7.9183    5.0607    2.5335 C   0  0  0  0  0  0  0  0  0  0  0  0
    7.6525    4.5278    1.2996 C   0  0  0  0  0  0  0  0  0  0  0  0
    6.3452    4.4621    0.8361 C   0  0  0  0  0  0  0  0  0  0  0  0
    9.6173    5.5829    4.1534 C   0  0  0  0  0  0  0  0  0  0  0  0
   11.0981    5.3884    4.2915 C   0  0  0  0  0  0  0  0  0  0  0  0
   11.4244    3.5412    5.7482 C   0  0  0  0  0  0  0  0  0  0  0  0
   11.1982    2.0497    5.7521 C   0  0  0  0  0  0  0  0  0  0  0  0
    9.8017    1.2920    4.0007 C   0  0  0  0  0  0  0  0  0  0  0  0
    8.4150    1.4775    3.4849 C   0  0  0  0  0  0  0  0  0  0  0  0
    6.2011    0.6910    3.9166 C   0  0  0  0  0  0  0  0  0  0  0  0
    5.3538   -0.0662    4.6959 C   0  0  0  0  0  0  0  0  0  0  0  0
    3.9871   -0.0247    4.4948 C   0  0  0  0  0  0  0  0  0  0  0  0
    3.4357    0.7897    3.5111 C   0  0  0  0  0  0  0  0  0  0  0  0
    4.3049    1.5150    2.7323 C   0  0  0  0  0  0  0  0  0  0  0  0
    5.6677    1.4952    2.9306 C   0  0  0  0  0  0  0  0  0  0  0  0
    1.9445    0.9128    3.3200 C   0  0  0  0  0  0  0  0  0  0  0  0
   -0.1861    1.3279    1.5865 C   0  0  0  0  0  0  0  0  0  0  0  0
  1 13  1  0
  2 33  1  0
  3 18  1  0
  4 22  1  0
  5 24  1  0
  6 26  1  0
  7  8  2  0
  8  9  1  0
  9 10  2  0
 10 11  1  0
 11 12  2  0
 12  7  1  0
 13 12  1  0
 14  1  1  0
 15 14  1  0
 16 15  2  0
 17 16  1  0
 18 17  2  0
 19 18  1  0
 20 15  1  0
 21  3  1  0
 22 21  1  0
 23  4  1  0
 24 23  1  0
 25  5  1  0
 26 25  1  0
 27  6  1  0
 28 27  2  0
 29 28  1  0
 30 29  2  0
 31 30  1  0
 32 27  1  0
 33 30  1  0
 34  2  1  0
  8 34  1  0
 19 20  2  0
 31 32  2  0
M  END
>  <_TriposChargeType>  (167) 
NO_CHARGES

$$$$
RUTXUZ
     RDKit          3D

 28 30  0  0  0  0  0  0  0  0999 V2000
    8.8051    1.2281   10.5949 O   0  0  0  0  0  0  0  0  0  0  0  0
   12.6132    3.0673   12.8088 O   0  0  0  0  0  0  0  0  0  0  0  0
    4.8845    2.1269   12.1620 C   0  0  0  0  0  0  0  0  0  0  0  0
    6.1794    1.6555   12.0559 C   0  0  0  0  0  0  0  0  0  0  0  0
    6.5371    0.7039   11.1059 C   0  0  0  0  0  0  0  0  0  0  0  0
    5.5652    0.2164   10.2479 C   0  0  0  0  0  0  0  0  0  0  0  0
    4.2650    0.6751   10.3488 C   0  0  0  0  0  0  0  0  0  0  0  0
    3.9196    1.6194   11.2917 C   0  0  0  0  0  0  0  0  0  0  0  0
    7.9518    0.1861   11.0529 C   0  0  0  0  0  0  0  0  0  0  0  0
   10.1633    0.8011   10.5381 C   0  0  0  0  0  0  0  0  0  0  0  0
   10.9868    1.9203   10.0144 C   0  0  0  0  0  0  0  0  0  0  0  0
   12.0846    2.4044   10.5628 C   0  0  0  0  0  0  0  0  0  0  0  0
   12.7082    2.0024   11.8631 C   0  0  0  0  0  0  0  0  0  0  0  0
    4.5502    3.1884   13.1828 C   0  0  0  0  0  0  0  0  0  0  0  0
    3.2461    3.0673   13.7266 O   0  0  0  0  0  0  0  0  0  0  0  0
    3.1510    2.0024   14.6723 C   0  0  0  0  0  0  0  0  0  0  0  0
    3.7747    2.4044   15.9725 C   0  0  0  0  0  0  0  0  0  0  0  0
    4.8725    1.9203   16.5209 C   0  0  0  0  0  0  0  0  0  0  0  0
    5.6959    0.8011   15.9973 C   0  0  0  0  0  0  0  0  0  0  0  0
    7.0541    1.2281   15.9405 O   0  0  0  0  0  0  0  0  0  0  0  0
    7.9075    0.1861   15.4825 C   0  0  0  0  0  0  0  0  0  0  0  0
    9.3221    0.7039   15.4294 C   0  0  0  0  0  0  0  0  0  0  0  0
    9.6799    1.6555   14.4795 C   0  0  0  0  0  0  0  0  0  0  0  0
   10.9748    2.1269   14.3733 C   0  0  0  0  0  0  0  0  0  0  0  0
   11.9397    1.6194   15.2437 C   0  0  0  0  0  0  0  0  0  0  0  0
   11.5942    0.6751   16.1866 C   0  0  0  0  0  0  0  0  0  0  0  0
   10.2940    0.2164   16.2874 C   0  0  0  0  0  0  0  0  0  0  0  0
   11.3090    3.1884   13.3526 C   0  0  0  0  0  0  0  0  0  0  0  0
  1  9  1  0
  2 13  1  0
  3  4  2  0
  4  5  1  0
  5  6  2  0
  6  7  1  0
  7  8  2  0
  8  3  1  0
  9  5  1  0
 10  1  1  0
 11 10  1  0
 12 11  2  0
 13 12  1  0
 14  3  1  0
 15 14  1  0
 16 15  1  0
 17 16  1  0
 18 17  2  0
 19 18  1  0
 20 19  1  0
 21 20  1  0
 22 21  1  0
 23 22  1  0
 24 23  2  0
 25 24  1  0
 26 25  2  0
 27 22  2  0
 28  2  1  0
 24 28  1  0
 26 27  1  0
M  END
>  <_TriposChargeType>  (168) 
NO_CHARGES

$$$$
SAFVOM
     RDKit          3D

 75 79  0  0  0  0  0  0  0  0999 V2000
   -0.1386    5.8699    8.8897 S   0  0  0  0  0  0  0  0  0  0  0  0
   -3.4752    2.2175    8.0684 O   0  0  0  0  0  0  0  0  0  0  0  0
   -4.6617   -0.5220    6.3472 O   0  0  0  0  0  0  0  0  0  0  0  0
   -0.7638   -0.4857    3.3921 O   0  0  0  0  0  0  0  0  0  0  0  0
   -2.0771   -1.9493    0.4759 O   0  0  0  0  0  0  0  0  0  0  0  0
    2.8873   -3.5669    2.5095 O   0  0  0  0  0  0  0  0  0  0  0  0
    4.3244    0.3670    3.2373 O   0  0  0  0  0  0  0  0  0  0  0  0
    0.4595    0.8633    6.2569 O   0  0  0  0  0  0  0  0  0  0  0  0
    0.4339   -0.9345    9.1133 O   0  0  0  0  0  0  0  0  0  0  0  0
   -0.4145    2.0839   11.1581 O   0  0  0  0  0  0  0  0  0  0  0  0
    0.0298    2.2426    8.9387 N   0  0  0  0  0  0  0  0  0  0  0  0
   -1.9931    0.5300    8.3997 N   0  0  0  0  0  0  0  0  0  0  0  0
   -2.5730    0.1248    5.6996 N   0  0  0  0  0  0  0  0  0  0  0  0
   -2.4993   -1.9024    3.1984 N   0  0  0  0  0  0  0  0  0  0  0  0
   -0.2138   -3.1979    0.6441 N   0  0  0  0  0  0  0  0  0  0  0  0
    1.9852   -1.7575    1.4752 N   0  0  0  0  0  0  0  0  0  0  0  0
    2.0786    0.3258    3.4504 N   0  0  0  0  0  0  0  0  0  0  0  0
    2.4555   -0.1831    6.3471 N   0  0  0  0  0  0  0  0  0  0  0  0
    2.1451    0.5406    9.1458 N   0  0  0  0  0  0  0  0  0  0  0  0
   -1.2394    2.8510    8.5957 C   0  0  1  0  0  0  0  0  0  0  0  0
   -1.1065    3.7162    7.3444 C   0  0  0  0  0  0  0  0  0  0  0  0
   -0.0492    4.7941    7.4366 C   0  0  0  0  0  0  0  0  0  0  0  0
   -1.8455    6.4479    8.8015 C   0  0  0  0  0  0  0  0  0  0  0  0
   -2.3379    1.8207    8.3497 C   0  0  0  0  0  0  0  0  0  0  0  0
   -2.9138   -0.5344    8.0229 C   0  0  1  0  0  0  0  0  0  0  0  0
   -4.0102   -0.8044    9.0568 C   0  0  0  0  0  0  0  0  0  0  0  0
   -3.5174   -0.9561   10.5003 C   0  0  0  0  0  0  0  0  0  0  0  0
   -4.7221   -1.1753   11.4136 C   0  0  0  0  0  0  0  0  0  0  0  0
   -2.5297   -2.0860   10.6691 C   0  0  0  0  0  0  0  0  0  0  0  0
   -3.4850   -0.2924    6.6122 C   0  0  0  0  0  0  0  0  0  0  0  0
   -2.8870    0.2628    4.2719 C   0  0  1  0  0  0  0  0  0  0  0  0
   -2.6764    1.6900    3.7516 C   0  0  1  0  0  0  0  0  0  0  0  0
   -2.9078    1.7204    2.2385 C   0  0  0  0  0  0  0  0  0  0  0  0
   -3.6089    2.6675    4.4816 C   0  0  0  0  0  0  0  0  0  0  0  0
   -3.2870    4.1299    4.2052 C   0  0  0  0  0  0  0  0  0  0  0  0
   -1.9736   -0.7371    3.5617 C   0  0  0  0  0  0  0  0  0  0  0  0
   -3.9142   -2.3233    3.3025 C   0  0  0  0  0  0  0  0  0  0  0  0
   -3.9536   -3.6149    2.4960 C   0  0  0  0  0  0  0  0  0  0  0  0
   -2.5532   -4.1889    2.6892 C   0  0  0  0  0  0  0  0  0  0  0  0
   -1.6529   -2.9493    2.6260 C   0  0  1  0  0  0  0  0  0  0  0  0
   -1.3217   -2.6296    1.1691 C   0  0  0  0  0  0  0  0  0  0  0  0
   -0.0336   -3.2656   -0.8160 C   0  0  0  0  0  0  0  0  0  0  0  0
    1.2044   -4.1544   -0.9995 C   0  0  0  0  0  0  0  0  0  0  0  0
    1.3224   -4.9348    0.3115 C   0  0  0  0  0  0  0  0  0  0  0  0
    0.8257   -3.9352    1.3680 C   0  0  1  0  0  0  0  0  0  0  0  0
    1.9872   -3.0592    1.8434 C   0  0  0  0  0  0  0  0  0  0  0  0
    3.1795   -0.9443    1.6373 C   0  0  1  0  0  0  0  0  0  0  0  0
    3.4254   -0.0752    0.3918 C   0  0  0  0  0  0  0  0  0  0  0  0
    3.9682   -0.8964   -0.7487 C   0  0  0  0  0  0  0  0  0  0  0  0
    5.2723   -1.3747   -0.6674 C   0  0  0  0  0  0  0  0  0  0  0  0
    5.7996   -2.1598   -1.6862 C   0  0  0  0  0  0  0  0  0  0  0  0
    5.0223   -2.4630   -2.7952 C   0  0  0  0  0  0  0  0  0  0  0  0
    3.7347   -1.9732   -2.8993 C   0  0  0  0  0  0  0  0  0  0  0  0
    3.2066   -1.1880   -1.8758 C   0  0  0  0  0  0  0  0  0  0  0  0
    3.2291   -0.0467    2.8713 C   0  0  0  0  0  0  0  0  0  0  0  0
    2.0900    1.3262    4.5083 C   0  0  1  0  0  0  0  0  0  0  0  0
    1.3309    2.5813    4.1034 C   0  0  0  0  0  0  0  0  0  0  0  0
    1.9686    3.1710    2.8660 C   0  0  0  0  0  0  0  0  0  0  0  0
    1.4219    2.9552    1.6091 C   0  0  0  0  0  0  0  0  0  0  0  0
    2.0948    3.3749    0.4540 C   0  0  0  0  0  0  0  0  0  0  0  0
    3.3215    4.0049    0.5684 C   0  0  0  0  0  0  0  0  0  0  0  0
    3.8652    4.2364    1.8127 C   0  0  0  0  0  0  0  0  0  0  0  0
    3.1836    3.8365    2.9527 C   0  0  0  0  0  0  0  0  0  0  0  0
    1.5913    0.6694    5.7864 C   0  0  0  0  0  0  0  0  0  0  0  0
    2.0127   -1.1521    7.3338 C   0  0  1  0  0  0  0  0  0  0  0  0
    3.1524   -2.1520    7.6109 C   0  0  0  0  0  0  0  0  0  0  0  0
    3.4363   -2.9929    6.3624 C   0  0  0  0  0  0  0  0  0  0  0  0
    2.8270   -3.0405    8.8013 C   0  0  0  0  0  0  0  0  0  0  0  0
    1.4786   -0.4910    8.6070 C   0  0  0  0  0  0  0  0  0  0  0  0
    1.6434    1.1111   10.4024 C   0  0  1  0  0  0  0  0  0  0  0  0
    2.6837    2.0083   11.1167 C   0  0  1  0  0  0  0  0  0  0  0  0
    2.7670    3.4075   10.5126 C   0  0  0  0  0  0  0  0  0  0  0  0
    2.3745    2.0540   12.6187 C   0  0  0  0  0  0  0  0  0  0  0  0
    3.4801    2.6789   13.4675 C   0  0  0  0  0  0  0  0  0  0  0  0
    0.3272    1.8519   10.1960 C   0  0  0  0  0  0  0  0  0  0  0  0
  1 22  1  0
  2 24  2  0
  3 30  2  0
  4 36  2  0
  5 41  2  0
  6 46  2  0
  7 55  2  0
  8 64  2  0
  9 69  2  0
 10 75  2  0
 14 36  1  0
 15 41  1  0
 20 11  1  0
 20 21  1  6
 22 21  1  0
 23  1  1  0
 24 12  1  0
 25 12  1  0
 25 26  1  1
 27 26  1  0
 28 27  1  0
 29 27  1  0
 30 13  1  0
 31 13  1  1
 32 31  1  0
 32 33  1  6
 34 32  1  0
 35 34  1  0
 36 31  1  0
 37 14  1  0
 38 37  1  0
 39 38  1  0
 40 14  1  0
 40 41  1  0
 42 15  1  0
 43 42  1  0
 44 43  1  0
 45 15  1  0
 46 16  1  0
 47 16  1  0
 47 48  1  6
 49 48  1  0
 50 49  2  0
 51 50  1  0
 52 51  2  0
 53 52  1  0
 54 49  1  0
 55 17  1  0
 56 17  1  0
 56 57  1  6
 58 57  1  0
 59 58  2  0
 60 59  1  0
 61 60  2  0
 62 61  1  0
 63 58  1  0
 64 18  1  0
 65 18  1  0
 65 66  1  1
 67 66  1  0
 68 66  1  0
 69 19  1  0
 70 19  1  6
 71 70  1  0
 71 72  1  6
 73 71  1  0
 74 73  1  0
 75 11  1  0
 20 24  1  0
 25 30  1  0
 40 39  1  6
 45 44  1  6
 45 46  1  0
 47 55  1  0
 53 54  2  0
 56 64  1  0
 62 63  2  0
 65 69  1  0
 70 75  1  0
M  END
>  <_TriposChargeType>  (169) 
NO_CHARGES

$$$$
SAVXUI
     RDKit          3D

 17 18  0  0  0  0  0  0  0  0999 V2000
    0.9404    1.2926    3.4587 N   0  0  0  0  0  0  0  0  0  0  0  0
    2.2391    1.5108    3.6684 C   0  0  0  0  0  0  0  0  0  0  0  0
    3.1156    0.2766    3.5999 C   0  0  0  0  0  2  0  0  0  0  0  0
    2.8680   -0.5554    2.4878 O   0  0  0  0  0  0  0  0  0  0  0  0
    3.1591    0.0893    1.2650 C   0  0  0  0  0  2  0  0  0  0  0  0
    2.8073   -0.8485    0.1485 C   0  0  0  0  0  2  0  0  0  0  0  0
    1.3192   -1.1373    0.0757 C   0  0  0  0  0  2  0  0  0  0  0  0
    0.6617    0.0595   -0.2664 O   0  0  0  0  0  0  0  0  0  0  0  0
   -0.7584   -0.0893   -0.2708 C   0  0  0  0  0  2  0  0  0  0  0  0
   -1.3979    1.2684   -0.3057 C   0  0  0  0  0  2  0  0  0  0  0  0
   -1.1069    2.1180    0.9287 C   0  0  0  0  0  2  0  0  0  0  0  0
   -1.5701    1.4117    2.0511 O   0  0  0  0  0  0  0  0  0  0  0  0
   -1.3192    2.1269    3.2404 C   0  0  0  0  0  2  0  0  0  0  0  0
    0.1459    2.3704    3.5228 C   0  0  0  0  0  0  0  0  0  0  0  0
    2.7729    2.7440    3.9741 C   0  0  0  0  0  3  0  0  0  0  0  0
    1.9177    3.8074    4.0745 C   0  0  0  0  0  3  0  0  0  0  0  0
    0.5928    3.6421    3.8270 C   0  0  0  0  0  3  0  0  0  0  0  0
  1  2  2  0
  2  3  1  0
  3  4  1  0
  4  5  1  0
  5  6  1  0
  6  7  1  0
  7  8  1  0
  8  9  1  0
  9 10  1  0
 10 11  1  0
 11 12  1  0
 12 13  1  0
 13 14  1  0
 14  1  1  0
 15  2  1  0
 16 15  2  0
 17 14  2  0
 16 17  1  0
M  RAD  8   3   3   5   3   6   3   7   3   9   3  10   3  11   3  13   3
M  RAD  3  15   2  16   2  17   2
M  END
>  <_TriposChargeType>  (170) 
NO_CHARGES

$$$$
SOTGOX
     RDKit          3D

 20 22  0  0  0  0  0  0  0  0999 V2000
    0.1734   13.3417    3.2961 S   0  0  0  0  0  0  0  0  0  0  0  0
    1.4988   12.9968    3.6844 O   0  0  0  0  0  0  0  0  0  0  0  0
   -0.5372   12.5608    2.3532 O   0  0  0  0  0  0  0  0  0  0  0  0
   -0.7389   13.3334    4.6524 N   0  0  0  0  0  0  0  0  0  0  0  0
    0.3104   14.8607    2.7049 N   0  0  0  0  0  0  0  0  0  0  0  0
   -1.6867   17.0710    4.9615 C   0  0  0  0  0  0  0  0  0  0  0  0
   -1.8385   15.7465    5.3981 O   0  0  0  0  0  0  0  0  0  0  0  0
   -0.7548   17.1290    3.8853 O   0  0  0  0  0  0  0  0  0  0  0  0
   -0.2624   14.0136    5.8135 C   0  0  0  0  0  0  0  0  0  0  0  0
    0.7338   13.4217    6.5941 C   0  0  0  0  0  0  0  0  0  0  0  0
    1.1622   14.0702    7.7398 C   0  0  0  0  0  0  0  0  0  0  0  0
    0.6016   15.2843    8.1030 C   0  0  0  0  0  0  0  0  0  0  0  0
   -0.3833   15.8486    7.3418 C   0  0  0  0  0  0  0  0  0  0  0  0
   -0.8191   15.2319    6.1806 C   0  0  0  0  0  0  0  0  0  0  0  0
   -1.2915   16.7013    2.6875 C   0  0  0  0  0  0  0  0  0  0  0  0
   -2.2625   17.4242    2.0229 C   0  0  0  0  0  0  0  0  0  0  0  0
   -2.7540   17.0020    0.8173 C   0  0  0  0  0  0  0  0  0  0  0  0
   -2.2698   15.8693    0.2396 C   0  0  0  0  0  0  0  0  0  0  0  0
   -1.2740   15.1463    0.8675 C   0  0  0  0  0  0  0  0  0  0  0  0
   -0.7732   15.5506    2.0924 C   0  0  0  0  0  0  0  0  0  0  0  0
  1  2  2  0
  3  1  2  0
  4  1  1  0
  5  1  1  0
  6  7  1  0
  7 14  1  0
  8  6  1  0
  9  4  1  0
 10  9  1  0
 11 10  2  0
 12 11  1  0
 13 12  2  0
 14  9  2  0
 15  8  1  0
 16 15  1  0
 17 16  2  0
 18 17  1  0
 19 18  2  0
 20  5  1  0
 13 14  1  0
 15 20  2  0
 19 20  1  0
M  END
>  <_TriposChargeType>  (171) 
NO_CHARGES

$$$$
SUMMOC
     RDKit          3D

 30 30  0  0  0  0  0  0  0  0999 V2000
   11.6179   -4.7586   11.9866 O   0  0  0  0  0  0  0  0  0  0  0  0
   11.7157   -3.8267   10.9264 C   0  0  0  0  0  0  0  0  0  0  0  0
   10.8837   -2.6531   11.2306 C   0  0  0  0  0  0  0  0  0  0  0  0
   11.0556   -1.7249   10.1817 O   0  0  0  0  0  0  0  0  0  0  0  0
   10.1447   -0.6376   10.2339 C   0  0  0  0  0  0  0  0  0  0  0  0
   10.3935    0.2570    9.0991 C   0  0  0  0  0  0  0  0  0  0  0  0
   10.0029   -0.3561    7.8878 O   0  0  0  0  0  0  0  0  0  0  0  0
   10.1950    0.4923    6.7791 C   0  0  0  0  0  0  0  0  0  0  0  0
    9.6910   -0.1744    5.5509 C   0  0  0  0  0  0  0  0  0  0  0  0
    8.2752   -0.2280    5.6125 O   0  0  0  0  0  0  0  0  0  0  0  0
    7.7059   -0.8302    4.4572 C   0  0  0  0  0  0  0  0  0  0  0  0
    6.2569   -0.9492    4.6662 C   0  0  0  0  0  0  0  0  0  0  0  0
    6.0060   -1.8729    5.7077 O   0  0  0  0  0  0  0  0  0  0  0  0
    4.6312   -2.1254    5.9093 C   0  0  0  0  0  0  0  0  0  0  0  0
   12.1526   -6.0193   11.6375 C   0  0  0  0  0  0  0  0  0  0  0  0
    4.4332   -3.0637    7.0273 C   0  0  0  0  0  0  0  0  0  0  0  0
   11.9546   -6.9576   12.7555 C   0  0  0  0  0  0  0  0  0  0  0  0
    4.9679   -4.3244    6.6783 O   0  0  0  0  0  0  0  0  0  0  0  0
   10.5799   -7.2101   12.9571 O   0  0  0  0  0  0  0  0  0  0  0  0
    4.8701   -5.2563    7.7384 C   0  0  0  0  0  0  0  0  0  0  0  0
   10.3289   -8.1338   13.9986 C   0  0  0  0  0  0  0  0  0  0  0  0
    5.7021   -6.4299    7.4342 C   0  0  0  0  0  0  0  0  0  0  0  0
    8.8799   -8.2528   14.2077 C   0  0  0  0  0  0  0  0  0  0  0  0
    5.5302   -7.3581    8.4832 O   0  0  0  0  0  0  0  0  0  0  0  0
    8.3107   -8.8550   13.0523 O   0  0  0  0  0  0  0  0  0  0  0  0
    6.4411   -8.4454    8.4309 C   0  0  0  0  0  0  0  0  0  0  0  0
    6.8948   -8.9086   13.1139 C   0  0  0  0  0  0  0  0  0  0  0  0
    6.1923   -9.3400    9.5657 C   0  0  0  0  0  0  0  0  0  0  0  0
    6.3908   -9.5753   11.8858 C   0  0  0  0  0  0  0  0  0  0  0  0
    6.5830   -8.7269   10.7771 O   0  0  0  0  0  0  0  0  0  0  0  0
  1  2  1  0
  2  3  1  0
  3  4  1  0
  4  5  1  0
  5  6  1  0
  6  7  1  0
  7  8  1  0
  8  9  1  0
  9 10  1  0
 10 11  1  0
 11 12  1  0
 12 13  1  0
 13 14  1  0
 15  1  1  0
 16 14  1  0
 17 15  1  0
 18 16  1  0
 19 17  1  0
 20 18  1  0
 21 19  1  0
 22 20  1  0
 23 21  1  0
 24 22  1  0
 25 23  1  0
 26 24  1  0
 27 25  1  0
 28 26  1  0
 29 27  1  0
 30 28  1  0
 29 30  1  0
M  END
>  <_TriposChargeType>  (172) 
NO_CHARGES

$$$$
SUQJET
     RDKit          3D

 48 52  0  0  0  0  0  0  0  0999 V2000
   -1.4334    5.8604   16.3271 O   0  0  0  0  0  0  0  0  0  0  0  0
   -1.6090    3.6428   16.5170 O   0  0  0  0  0  0  0  0  0  0  0  0
   -1.0485    5.3296   23.7017 O   0  0  0  0  0  0  0  0  0  0  0  0
   -0.5715    3.1605   23.9243 O   0  0  0  0  0  0  0  0  0  0  0  0
   -3.1952    4.7166   15.1599 C   0  0  0  0  0  0  0  0  0  0  0  0
   -1.9884    4.8327   16.0376 C   0  0  0  0  0  0  0  0  0  0  0  0
   -0.5113    3.6390   17.4818 C   0  0  0  0  0  0  0  0  0  0  0  0
   -0.9706    4.0119   18.8549 C   0  0  0  0  0  0  0  0  0  0  0  0
   -0.4747    5.1334   19.4935 C   0  0  0  0  0  0  0  0  0  0  0  0
   -0.8590    5.4339   20.7857 C   0  0  0  0  0  0  0  0  0  0  0  0
   -1.7603    4.6316   21.4668 C   0  0  0  0  0  0  0  0  0  0  0  0
   -2.2708    3.5168   20.8234 C   0  0  0  0  0  0  0  0  0  0  0  0
   -1.8679    3.2069   19.5360 C   0  0  0  0  0  0  0  0  0  0  0  0
   -2.1901    4.9726   22.8629 C   0  0  0  0  0  0  0  0  0  0  0  0
   -0.3073    4.3095   24.1530 C   0  0  0  0  0  0  0  0  0  0  0  0
    0.8477    4.7485   25.0052 C   0  0  0  0  0  0  0  0  0  0  0  0
    1.3281    6.1811   24.8725 C   0  0  0  0  0  0  0  0  0  0  0  0
    2.1067    6.5171   23.6210 C   0  0  0  0  0  0  0  0  0  0  0  0
    2.1757    5.6838   22.5192 C   0  0  0  0  0  0  0  0  0  0  0  0
    2.8706    6.0441   21.3712 C   0  0  0  0  0  0  0  0  0  0  0  0
    3.5459    7.2469   21.2902 C   0  0  0  0  0  0  0  0  0  0  0  0
    3.4982    8.0774   22.4116 C   0  0  0  0  0  0  0  0  0  0  0  0
    2.7906    7.7251   23.5374 C   0  0  0  0  0  0  0  0  0  0  0  0
   -3.0967    3.7130   14.0250 C   0  0  0  0  0  0  0  0  0  0  0  0
    4.3629    7.6660   20.0904 C   0  0  0  0  0  0  0  0  0  0  0  0
    4.4614    6.6624   18.9555 C   0  0  0  0  0  0  0  0  0  0  0  0
    3.2545    6.5463   18.0777 C   0  0  0  0  0  0  0  0  0  0  0  0
    2.6996    5.5186   17.7883 O   0  0  0  0  0  0  0  0  0  0  0  0
    2.8752    7.7362   17.5984 O   0  0  0  0  0  0  0  0  0  0  0  0
    1.7774    7.7400   16.6336 C   0  0  0  0  0  0  0  0  0  0  0  0
    2.2367    7.3671   15.2605 C   0  0  0  0  0  0  0  0  0  0  0  0
    1.7408    6.2456   14.6219 C   0  0  0  0  0  0  0  0  0  0  0  0
    2.1251    5.9451   13.3297 C   0  0  0  0  0  0  0  0  0  0  0  0
    3.0265    6.7474   12.6486 C   0  0  0  0  0  0  0  0  0  0  0  0
    3.5369    7.8622   13.2920 C   0  0  0  0  0  0  0  0  0  0  0  0
    3.1340    8.1721   14.5794 C   0  0  0  0  0  0  0  0  0  0  0  0
    3.4562    6.4064   11.2525 C   0  0  0  0  0  0  0  0  0  0  0  0
    2.3147    6.0494   10.4137 O   0  0  0  0  0  0  0  0  0  0  0  0
    1.5734    7.0695    9.9624 C   0  0  0  0  0  0  0  0  0  0  0  0
    1.8376    8.2185   10.1911 O   0  0  0  0  0  0  0  0  0  0  0  0
    0.4184    6.6305    9.1102 C   0  0  0  0  0  0  0  0  0  0  0  0
   -0.0620    5.1979    9.2429 C   0  0  0  0  0  0  0  0  0  0  0  0
   -0.8405    4.8619   10.4944 C   0  0  0  0  0  0  0  0  0  0  0  0
   -0.9096    5.6952   11.5962 C   0  0  0  0  0  0  0  0  0  0  0  0
   -1.6045    5.3349   12.7441 C   0  0  0  0  0  0  0  0  0  0  0  0
   -2.2798    4.1321   12.8252 C   0  0  0  0  0  0  0  0  0  0  0  0
   -2.2320    3.3016   11.7038 C   0  0  0  0  0  0  0  0  0  0  0  0
   -1.5245    3.6539   10.5780 C   0  0  0  0  0  0  0  0  0  0  0  0
  1  6  2  0
  2  6  1  0
  3 14  1  0
  4 15  2  0
  5  6  1  0
  7  2  1  0
  8  7  1  0
  9  8  2  0
 10  9  1  0
 11 10  2  0
 12 11  1  0
 13  8  1  0
 14 11  1  0
 15  3  1  0
 16 15  1  0
 17 16  1  0
 18 17  1  0
 19 18  2  0
 20 19  1  0
 21 20  2  0
 22 21  1  0
 23 18  1  0
 24  5  1  0
 25 21  1  0
 26 25  1  0
 27 26  1  0
 28 27  2  0
 29 27  1  0
 30 29  1  0
 31 30  1  0
 32 31  2  0
 33 32  1  0
 34 33  2  0
 35 34  1  0
 36 31  1  0
 37 34  1  0
 38 37  1  0
 39 38  1  0
 40 39  2  0
 41 39  1  0
 42 41  1  0
 43 42  1  0
 44 43  2  0
 45 44  1  0
 46 24  1  0
 47 46  1  0
 48 43  1  0
 12 13  2  0
 22 23  2  0
 35 36  2  0
 45 46  2  0
 47 48  2  0
M  END
>  <_TriposChargeType>  (173) 
NO_CHARGES

$$$$
TALZUC
     RDKit          3D

 34 34  0  0  0  0  0  0  0  0999 V2000
    3.0642    5.0496    8.7105 O   0  0  0  0  0  0  0  0  0  0  0  0
    2.0817    2.5998    5.3078 O   0  0  0  0  0  0  0  0  0  0  0  0
    3.5358    0.9727    5.8602 O   0  0  0  0  0  0  0  0  0  0  0  0
    0.7940   -0.9025    4.5530 O   0  0  0  0  0  0  0  0  0  0  0  0
   -1.6113   -0.2344    8.2058 O   0  0  0  0  0  0  0  0  0  0  0  0
   -0.2621    3.0710   11.2558 O   0  0  0  0  0  0  0  0  0  0  0  0
    1.5943    2.2436   10.2653 O   0  0  0  0  0  0  0  0  0  0  0  0
    0.6912   -0.0142   12.4095 O   0  0  0  0  0  0  0  0  0  0  0  0
    3.2698    2.8483    8.2290 N   0  0  0  0  0  0  0  0  0  0  0  0
    1.4666   -0.5737    6.7098 N   0  0  0  0  0  0  0  0  0  0  0  0
    0.3014    0.0797    9.3624 N   0  0  0  0  0  0  0  0  0  0  0  0
    2.2317    3.5539   10.3444 C   0  0  2  0  0  0  0  0  0  0  0  0
    2.8908    3.8648    9.0098 C   0  0  0  0  0  0  0  0  0  0  0  0
    3.8303    3.0946    6.8987 C   0  0  2  0  0  0  0  0  0  0  0  0
    3.0392    2.2269    5.9246 C   0  0  0  0  0  0  0  0  0  0  0  0
    2.9201    0.1053    4.8747 C   0  0  2  0  0  0  0  0  0  0  0  0
    1.6153   -0.4873    5.3802 C   0  0  0  0  0  0  0  0  0  0  0  0
    0.3478   -1.2874    7.3245 C   0  0  2  0  0  0  0  0  0  0  0  0
   -0.4048   -0.4165    8.3289 C   0  0  0  0  0  0  0  0  0  0  0  0
   -0.3481    0.8491   10.4131 C   0  0  2  0  0  0  0  0  0  0  0  0
    0.3189    2.1789   10.6992 C   0  0  0  0  0  0  0  0  0  0  0  0
    3.2169    3.6312   11.5153 C   0  0  0  0  0  0  0  0  0  0  0  0
    4.2605    2.5249   11.4666 C   0  0  0  0  0  0  0  0  0  0  0  0
    2.4753    3.6246   12.8469 C   0  0  0  0  0  0  0  0  0  0  0  0
    5.3504    2.8935    6.7930 C   0  0  2  0  0  0  0  0  0  0  0  0
    6.0907    3.7915    7.7876 C   0  0  0  0  0  0  0  0  0  0  0  0
    7.6047    3.6199    7.7138 C   0  0  0  0  0  0  0  0  0  0  0  0
    5.7900    3.2084    5.3612 C   0  0  0  0  0  0  0  0  0  0  0  0
    3.9304   -0.9826    4.4982 C   0  0  0  0  0  0  0  0  0  0  0  0
    5.1740   -0.3675    3.8706 C   0  0  0  0  0  0  0  0  0  0  0  0
    4.3173   -1.8756    5.6692 C   0  0  0  0  0  0  0  0  0  0  0  0
    0.8199   -2.5747    8.0079 C   0  0  0  0  0  0  0  0  0  0  0  0
   -0.5618    0.0730   11.7286 C   0  0  1  0  0  0  0  0  0  0  0  0
   -1.1567   -1.2951   11.4866 C   0  0  0  0  0  0  0  0  0  0  0  0
  1 13  2  0
  2 15  2  0
  3 15  1  0
  4 17  2  0
  5 19  2  0
  6 21  2  0
  7 12  1  0
 33  8  1  0
  9 13  1  0
 10 17  1  0
 11 19  1  0
 12 13  1  0
 14  9  1  1
 15 14  1  0
 16  3  1  0
 17 16  1  0
 18 10  1  0
 19 18  1  0
 20 11  1  6
 21  7  1  0
 12 22  1  1
 23 22  1  0
 24 22  1  0
 25 14  1  0
 25 26  1  0
 27 26  1  0
 25 28  1  6
 16 29  1  1
 30 29  1  0
 31 29  1  0
 18 32  1  1
 33 20  1  0
 33 34  1  6
 20 21  1  0
M  END
>  <_TriposChargeType>  (174) 
NO_CHARGES

$$$$
TEGXEI
     RDKit          3D

 23 24  0  0  0  0  0  0  0  0999 V2000
   -0.3890    8.1997    4.8902 C   0  0  0  0  0  0  0  0  0  0  0  0
    0.0209    9.4476    5.0129 C   0  0  0  0  0  0  0  0  0  0  0  0
   -0.4706   10.4150    6.0527 C   0  0  0  0  0  0  0  0  0  0  0  0
    0.6458   10.9623    6.9272 C   0  0  0  0  0  0  0  0  0  0  0  0
    1.3211    9.9020    7.7775 C   0  0  0  0  0  0  0  0  0  0  0  0
    0.4947    9.3579    8.9180 C   0  0  1  0  0  0  0  0  0  0  0  0
    1.2011    8.2483    9.6833 C   0  0  0  0  0  0  0  0  0  0  0  0
    1.4359    6.9686    8.8840 C   0  0  0  0  0  0  0  0  0  0  0  0
    0.1636    6.1749    8.6569 C   0  0  0  0  0  0  0  0  0  0  0  0
    0.2357    5.1154    7.5722 C   0  0  1  0  0  0  0  0  0  0  0  0
    0.1917    5.8431    6.2919 O   0  0  0  0  0  0  0  0  0  0  0  0
   -0.2007    5.1553    5.2218 C   0  0  0  0  0  0  0  0  0  0  0  0
   -0.6016    4.0015    5.3044 O   0  0  0  0  0  0  0  0  0  0  0  0
    1.4915    4.2602    7.5856 C   0  0  0  0  0  0  0  0  0  0  0  0
    0.2287   10.4615    9.8072 O   0  0  0  0  0  0  0  0  0  0  0  0
   -0.0441    5.8735    3.9440 C   0  0  0  0  0  0  0  0  0  0  0  0
    0.1474    5.0729    2.8022 C   0  0  0  0  0  0  0  0  0  0  0  0
    0.4639    5.6265    1.5718 C   0  0  0  0  0  0  0  0  0  0  0  0
    0.5370    6.9946    1.4552 C   0  0  0  0  0  0  0  0  0  0  0  0
    0.3108    7.8110    2.5508 C   0  0  0  0  0  0  0  0  0  0  0  0
    0.0094    7.2800    3.7946 C   0  0  0  0  0  0  0  0  0  0  0  0
    0.0487    3.7190    2.8241 O   0  0  0  0  0  0  0  0  0  0  0  0
    0.7820    7.6010    0.2539 O   0  0  0  0  0  0  0  0  0  0  0  0
  1  2  2  0
  2  3  1  0
  3  4  1  0
  4  5  1  0
  5  6  1  0
  6  7  1  0
  7  8  1  0
  8  9  1  0
  9 10  1  0
 10 11  1  0
 11 12  1  0
 12 13  2  0
 10 14  1  1
  6 15  1  1
 16 12  1  0
 17 16  1  0
 18 17  2  0
 19 18  1  0
 20 19  2  0
 21  1  1  0
 22 17  1  0
 23 19  1  0
 16 21  2  0
 20 21  1  0
M  END
>  <_TriposChargeType>  (175) 
NO_CHARGES

$$$$
TENBOD
     RDKit          3D

 14 14  0  0  0  0  0  0  0  0999 V2000
   -0.0023    1.0616   -1.4851 C   0  0  0  0  0  0  0  0  0  0  0  0
    0.1316   -0.4063   -1.3208 C   0  0  0  0  0  0  0  0  0  0  0  0
   -0.4163   -1.2526   -2.1684 C   0  0  0  0  0  0  0  0  0  0  0  0
   -0.0833   -2.7135   -2.1855 C   0  0  2  0  0  0  0  0  0  0  0  0
    0.7340   -3.0642   -3.4102 C   0  0  0  0  0  0  0  0  0  0  0  0
    1.8389   -2.0605   -3.8161 C   0  0  0  0  0  0  0  0  0  0  0  0
    2.8863   -1.7450   -2.7781 C   0  0  0  0  0  0  0  0  0  0  0  0
    3.6262   -0.4173   -3.0250 C   0  0  0  0  0  0  0  0  0  0  0  0
    2.7784    0.8314   -2.8625 C   0  0  0  0  0  0  0  0  0  0  0  0
    2.4450    1.1908   -1.4268 C   0  0  1  0  0  0  0  0  0  0  0  0
    3.3577    2.2273   -0.8108 C   0  0  0  0  0  0  0  0  0  0  0  0
   -1.0522    1.6213   -1.6979 O   0  0  0  0  0  0  0  0  0  0  0  0
    1.1012    1.8061   -1.3855 O   0  0  0  0  0  0  0  0  0  0  0  0
   -1.3202   -3.4204   -2.1514 O   0  0  0  0  0  0  0  0  0  0  0  0
  1  2  1  0
  2  3  2  0
  3  4  1  0
  4  5  1  0
  5  6  1  0
  6  7  1  0
  7  8  1  0
  8  9  1  0
  9 10  1  0
 10 11  1  6
 12  1  2  0
 13  1  1  0
  4 14  1  6
 10 13  1  0
M  END
>  <_TriposChargeType>  (176) 
NO_CHARGES

$$$$
TERSIS
     RDKit          3D

 48 52  0  0  0  0  0  0  0  0999 V2000
   -2.6359   12.1843    6.0437 S   0  0  0  0  0  0  0  0  0  0  0  0
   -3.4590   14.0077    3.7992 S   0  0  0  0  0  0  0  0  0  0  0  0
   -0.5828    9.9960    6.8422 S   0  0  0  0  0  0  0  0  0  0  0  0
    3.0009   21.3792    3.3764 S   0  0  0  0  0  0  0  0  0  0  0  0
    4.5906   23.4811    1.9996 S   0  0  0  0  0  0  0  0  0  0  0  0
    0.9913   19.1725    3.1695 S   0  0  0  0  0  0  0  0  0  0  0  0
   -0.3867   16.4481    2.8257 O   0  0  0  0  0  0  0  0  0  0  0  0
    5.3704   25.9906    0.4898 O   0  0  0  0  0  0  0  0  0  0  0  0
   -0.6609   11.4169    4.6390 N   0  0  0  0  0  0  0  0  0  0  0  0
   -1.3352   12.3451    3.8623 N   0  0  0  0  0  0  0  0  0  0  0  0
    2.0275   20.6405    1.1441 N   0  0  0  0  0  0  0  0  0  0  0  0
    2.9076   21.6800    0.8534 N   0  0  0  0  0  0  0  0  0  0  0  0
   -1.2257   11.2197    5.7878 C   0  0  0  0  0  0  0  0  0  0  0  0
   -2.3731   12.8090    4.4605 C   0  0  0  0  0  0  0  0  0  0  0  0
   -2.3227   14.9670    2.7817 C   0  0  0  0  0  0  0  0  0  0  0  0
   -1.3414   15.7567    3.6146 C   0  0  0  0  0  0  0  0  0  0  0  0
   -0.9335   17.5801    2.1555 C   0  0  0  0  0  0  0  0  0  0  0  0
    0.1598   18.4856    1.7152 C   0  0  0  0  0  0  0  0  0  0  0  0
    1.9726   20.3927    2.4069 C   0  0  0  0  0  0  0  0  0  0  0  0
    3.4679   22.1593    1.9124 C   0  0  0  0  0  0  0  0  0  0  0  0
    5.0523   23.6891    0.2636 C   0  0  0  0  0  0  0  0  0  0  0  0
    4.6872   25.0256   -0.2524 C   0  0  0  0  0  0  0  0  0  0  0  0
    5.1713   27.3048   -0.0047 C   0  0  0  0  0  0  0  0  0  0  0  0
   -1.6027   10.1015    8.3209 C   0  0  0  0  0  0  0  0  0  0  0  0
   -1.0927   11.0662    9.3519 C   0  0  0  0  0  0  0  0  0  0  0  0
   -1.2918   12.3804    8.8574 O   0  0  0  0  0  0  0  0  0  0  0  0
   -0.6086   13.3454    9.5996 C   0  0  0  0  0  0  0  0  0  0  0  0
   -0.9737   14.6819    9.0836 C   0  0  0  0  0  0  0  0  0  0  0  0
   -0.5120   14.8899    7.3477 S   0  0  0  0  0  0  0  0  0  0  0  0
    0.6107   16.2117    7.4348 C   0  0  0  0  0  0  0  0  0  0  0  0
    1.0777   16.9918    5.9708 S   0  0  0  0  0  0  0  0  0  0  0  0
    2.1060   17.9783    6.9403 C   0  0  0  0  0  0  0  0  0  0  0  0
    3.0873   19.1985    6.1777 S   0  0  0  0  0  0  0  0  0  0  0  0
    3.9188   19.8854    7.6320 C   0  0  0  0  0  0  0  0  0  0  0  0
    5.0121   20.7909    7.1917 C   0  0  0  0  0  0  0  0  0  0  0  0
    4.4653   21.9229    6.5215 O   0  0  0  0  0  0  0  0  0  0  0  0
    5.4200   22.6143    5.7326 C   0  0  0  0  0  0  0  0  0  0  0  0
    6.4013   23.4040    6.5655 C   0  0  0  0  0  0  0  0  0  0  0  0
    7.5376   24.3633    5.5480 S   0  0  0  0  0  0  0  0  0  0  0  0
    6.4517   25.5620    4.8867 C   0  0  0  0  0  0  0  0  0  0  0  0
    6.7145   26.1867    3.3035 S   0  0  0  0  0  0  0  0  0  0  0  0
    5.3043   27.1513    3.5594 C   0  0  0  0  0  0  0  0  0  0  0  0
    4.6614   28.3750    2.5051 S   0  0  0  0  0  0  0  0  0  0  0  0
    5.6813   28.2695    1.0263 C   0  0  0  0  0  0  0  0  0  0  0  0
    4.7395   26.9541    4.7082 N   0  0  0  0  0  0  0  0  0  0  0  0
    5.4138   26.0259    5.4849 N   0  0  0  0  0  0  0  0  0  0  0  0
    2.0511   17.7305    8.2031 N   0  0  0  0  0  0  0  0  0  0  0  0
    1.1710   16.6910    8.4938 N   0  0  0  0  0  0  0  0  0  0  0  0
  1 13  1  0
  2 14  1  0
  3 13  1  0
  4 19  1  0
  5 20  1  0
  6 18  1  0
  7 16  1  0
  8 22  1  0
  9 10  1  0
 10 14  2  0
 11 12  1  0
 12 20  2  0
 13  9  2  0
 14  1  1  0
 15  2  1  0
 16 15  1  0
 17  7  1  0
 18 17  1  0
 19  6  1  0
 20  4  1  0
 21  5  1  0
 22 21  1  0
 23  8  1  0
 24  3  1  0
 25 24  1  0
 26 25  1  0
 27 26  1  0
 28 27  1  0
 29 28  1  0
 30 29  1  0
 31 30  1  0
 32 31  1  0
 33 32  1  0
 34 33  1  0
 35 34  1  0
 36 35  1  0
 37 36  1  0
 38 37  1  0
 39 38  1  0
 40 39  1  0
 41 40  1  0
 42 41  1  0
 43 42  1  0
 44 23  1  0
 45 42  2  0
 46 40  2  0
 47 32  2  0
 48 30  2  0
 11 19  2  0
 43 44  1  0
 45 46  1  0
 47 48  1  0
M  END
>  <_TriposChargeType>  (177) 
NO_CHARGES

$$$$
TETMOU
     RDKit          3D

 22 22  0  0  0  0  0  0  0  0999 V2000
    9.1665    5.1382    4.0485 O   0  0  0  0  0  0  0  0  0  0  0  0
    2.6893    4.8894    4.0577 C   0  0  0  0  0  0  0  0  0  0  0  0
    3.0654    0.0188    4.6632 C   0  0  0  0  0  0  0  0  0  0  0  0
    0.6061    1.0944    6.4908 O   0  0  0  0  0  0  0  0  0  0  0  0
    1.8020    4.0002    4.9008 C   0  0  0  0  0  0  0  0  0  0  0  0
    3.6452    0.7075    3.4436 C   0  0  0  0  0  0  0  0  0  0  0  0
    8.6517    5.2147    2.9554 C   0  0  0  0  0  0  0  0  0  0  0  0
    0.4919    3.6393    4.2295 C   0  0  0  0  0  0  0  0  0  0  0  0
    5.0130    1.3166    3.7034 C   0  0  0  0  0  0  0  0  0  0  0  0
    7.7918    6.3928    2.5730 C   0  0  0  0  0  0  0  0  0  0  0  0
   -0.3765    2.6933    5.0542 C   0  0  0  0  0  0  0  0  0  0  0  0
    5.6210    2.0213    2.5147 C   0  0  0  0  0  0  0  0  0  0  0  0
    7.2497    7.2024    3.7315 C   0  0  0  0  0  0  0  0  0  0  0  0
    0.3082    1.3884    5.3599 C   0  0  0  0  0  0  0  0  0  0  0  0
    6.9560    2.6841    2.8058 C   0  0  0  0  0  0  0  0  0  0  0  0
    6.2285    6.4431    4.5713 C   0  0  0  0  0  0  0  0  0  0  0  0
    0.5876    0.4506    4.2154 C   0  0  0  0  0  0  0  0  0  0  0  0
    7.5709    3.3726    1.6003 C   0  0  0  0  0  0  0  0  0  0  0  0
    4.9287    6.0934    3.8681 C   0  0  0  0  0  0  0  0  0  0  0  0
    1.6696   -0.5744    4.4736 C   0  0  0  0  0  0  0  0  0  0  0  0
    8.8544    4.1491    1.9125 C   0  0  0  0  0  0  0  0  0  0  0  0
    4.0003    5.2561    4.7188 C   0  0  0  0  0  0  0  0  0  0  0  0
  1  7  2  0
  2  5  1  0
  3  6  1  0
  4 14  2  0
  5  8  1  0
  6  9  1  0
  7 10  1  0
  8 11  1  0
  9 12  1  0
 10 13  1  0
 11 14  1  0
 12 15  1  0
 13 16  1  0
 14 17  1  0
 15 18  1  0
 16 19  1  0
 17 20  1  0
 18 21  1  0
 19 22  1  0
 20  3  1  0
 21  7  1  0
 22  2  1  0
M  END
>  <_TriposChargeType>  (178) 
NO_CHARGES

$$$$
TIHMUS
     RDKit          3D

 16 17  0  0  0  0  0  0  0  0999 V2000
   -0.7424   21.7981    6.7840 O   0  0  0  0  0  0  0  0  0  0  0  0
   -2.4001   23.2748    6.5211 O   0  0  0  0  0  0  0  0  0  0  0  0
   -1.7160   19.2633    9.0982 C   0  0  0  0  0  0  0  0  0  0  0  0
   -1.6092   20.7512    9.4367 C   0  0  0  0  0  0  0  0  0  0  0  0
   -0.2574   21.4031    9.1197 C   0  0  0  0  0  0  0  0  0  0  0  0
   -0.2880   22.4278    8.0229 C   0  0  0  0  0  0  0  0  0  0  0  0
   -1.8442   22.2623    6.1919 C   0  0  0  0  0  0  0  0  0  0  0  0
   -2.3181   21.3693    5.0833 C   0  0  0  0  0  0  0  0  0  0  0  0
   -2.0667   19.8664    5.3056 C   0  0  1  0  0  0  0  0  0  0  0  0
   -2.5571   19.4398    6.7069 C   0  0  0  0  0  0  0  0  0  0  0  0
   -1.4741   18.8799    7.6375 C   0  0  2  0  0  0  0  0  0  0  0  0
   -1.3386   17.3572    7.5087 C   0  0  0  0  0  0  0  0  0  0  0  0
   -1.0119   16.7964    6.1302 C   0  0  0  0  0  0  0  0  0  0  0  0
   -2.1494   16.6696    5.1034 C   0  0  0  0  0  0  0  0  0  0  0  0
   -2.1416   17.6599    3.9447 C   0  0  0  0  0  0  0  0  0  0  0  0
   -2.7073   19.0611    4.1676 C   0  0  0  0  0  0  0  0  0  0  0  0
  1  6  1  0
  2  7  2  0
  4  3  1  0
  5  4  1  0
  6  5  1  0
  7  1  1  0
  8  7  1  0
  9  8  1  6
 10  9  1  0
 11  3  1  1
 12 11  1  0
 13 12  1  0
 14 13  1  0
 15 14  1  0
 16  9  1  0
 10 11  1  0
 15 16  1  0
M  END
>  <_TriposChargeType>  (179) 
NO_CHARGES

$$$$
UDAWIG
     RDKit          3D

 50 54  0  0  0  0  0  0  0  0999 V2000
   -2.9397    1.9773    9.3713 O   0  0  0  0  0  0  0  0  0  0  0  0
    1.7749   -3.0334    7.8561 O   0  0  0  0  0  0  0  0  0  0  0  0
    6.5154    1.1430    0.1941 O   0  0  0  0  0  0  0  0  0  0  0  0
    1.9507    6.2428    1.8429 O   0  0  0  0  0  0  0  0  0  0  0  0
    2.6723    7.6081    5.3677 O   0  0  0  0  0  0  0  0  0  0  0  0
    7.4862    3.0369    3.0296 O   0  0  0  0  0  0  0  0  0  0  0  0
    0.2742    4.0454    6.1015 N   0  0  0  0  0  0  0  0  0  0  0  0
   -1.1773    3.8377    5.9214 C   0  0  0  0  0  0  0  0  0  0  0  0
   -1.8756    3.4790    7.2291 C   0  0  0  0  0  0  0  0  0  0  0  0
   -1.4605    2.1497    7.6606 N   0  0  0  0  0  0  0  0  0  0  0  0
   -2.0351    1.5073    8.6679 C   0  0  0  0  0  0  0  0  0  0  0  0
   -1.5203    0.1254    8.9476 C   0  0  0  0  0  0  0  0  0  0  0  0
   -0.4631   -0.2903    8.2421 N   0  0  0  0  0  0  0  0  0  0  0  0
   -2.1502   -0.6594    9.9068 C   0  0  0  0  0  0  0  0  0  0  0  0
   -1.6684   -1.9332   10.1397 C   0  0  0  0  0  0  0  0  0  0  0  0
   -0.5613   -2.3778    9.4247 C   0  0  0  0  0  0  0  0  0  0  0  0
    0.0118   -1.5174    8.4842 C   0  0  0  0  0  0  0  0  0  0  0  0
    1.2230   -1.9366    7.6945 C   0  0  0  0  0  0  0  0  0  0  0  0
    1.6492   -1.0302    6.8192 N   0  0  0  0  0  0  0  0  0  0  0  0
    2.8362   -1.2174    6.0045 C   0  0  0  0  0  0  0  0  0  0  0  0
    3.0686    0.0685    5.1938 C   0  0  0  0  0  0  0  0  0  0  0  0
    4.3535    0.1587    4.5024 N   0  0  0  0  0  0  0  0  0  0  0  0
    4.4942   -0.8337    3.4433 C   0  0  0  0  0  0  0  0  0  0  0  0
    5.4149   -0.3761    2.3168 C   0  0  0  0  0  0  0  0  0  0  0  0
    5.0142    0.9611    1.8908 N   0  0  0  0  0  0  0  0  0  0  0  0
    5.6021    1.6129    0.8938 C   0  0  0  0  0  0  0  0  0  0  0  0
    5.0954    3.0034    0.6325 C   0  0  0  0  0  0  0  0  0  0  0  0
    4.0145    3.3964    1.3095 N   0  0  0  0  0  0  0  0  0  0  0  0
    5.7715    3.8162   -0.2757 C   0  0  0  0  0  0  0  0  0  0  0  0
    5.2770    5.0908   -0.5115 C   0  0  0  0  0  0  0  0  0  0  0  0
    4.1350    5.5008    0.1594 C   0  0  0  0  0  0  0  0  0  0  0  0
    3.5458    4.6300    1.0730 C   0  0  0  0  0  0  0  0  0  0  0  0
    2.3569    5.0761    1.8850 C   0  0  0  0  0  0  0  0  0  0  0  0
    1.8201    4.1381    2.6632 N   0  0  0  0  0  0  0  0  0  0  0  0
    0.7712    4.4411    3.6237 C   0  0  0  0  0  0  0  0  0  0  0  0
    1.0417    3.6455    4.9063 C   0  0  0  0  0  0  0  0  0  0  0  0
    0.5185    5.4254    6.5546 C   0  0  0  0  0  0  0  0  0  0  0  0
    1.8746    5.6729    7.2192 C   0  0  0  0  0  0  0  0  0  0  0  0
    3.0151    5.5794    6.3274 N   0  0  0  0  0  0  0  0  0  0  0  0
    3.2950    6.5440    5.4422 C   0  0  0  0  0  0  0  0  0  0  0  0
    4.4297    6.2365    4.4974 C   0  0  0  0  0  0  0  0  0  0  0  0
    4.9884    5.0295    4.5986 N   0  0  0  0  0  0  0  0  0  0  0  0
    4.8184    7.1845    3.5459 C   0  0  0  0  0  0  0  0  0  0  0  0
    5.8641    6.8658    2.6927 C   0  0  0  0  0  0  0  0  0  0  0  0
    6.4714    5.6320    2.8076 C   0  0  0  0  0  0  0  0  0  0  0  0
    5.9845    4.7364    3.7539 C   0  0  0  0  0  0  0  0  0  0  0  0
    6.5901    3.3522    3.8335 C   0  0  0  0  0  0  0  0  0  0  0  0
    6.0988    2.5576    4.7764 N   0  0  0  0  0  0  0  0  0  0  0  0
    6.5879    1.2032    4.9779 C   0  0  0  0  0  0  0  0  0  0  0  0
    5.4868    0.2472    5.4311 C   0  0  0  0  0  0  0  0  0  0  0  0
  1 11  2  0
  2 18  2  0
  3 26  2  0
  4 33  2  0
  5 40  2  0
  6 47  2  0
  7  8  1  0
  9  8  1  0
 10  9  1  0
 11 10  1  0
 12 11  1  0
 13 12  2  0
 14 12  1  0
 15 14  2  0
 16 15  1  0
 17 13  1  0
 18 17  1  0
 19 18  1  0
 20 19  1  0
 21 20  1  0
 22 21  1  0
 23 22  1  0
 24 23  1  0
 25 24  1  0
 26 25  1  0
 27 26  1  0
 28 27  2  0
 29 27  1  0
 30 29  2  0
 31 30  1  0
 32 28  1  0
 33 32  1  0
 34 33  1  0
 35 34  1  0
 36  7  1  0
 37  7  1  0
 38 37  1  0
 39 38  1  0
 40 39  1  0
 41 40  1  0
 42 41  2  0
 43 41  1  0
 44 43  2  0
 45 44  1  0
 46 42  1  0
 47 46  1  0
 48 47  1  0
 49 48  1  0
 50 22  1  0
 16 17  2  0
 31 32  2  0
 35 36  1  0
 45 46  2  0
 49 50  1  0
M  END
>  <_TriposChargeType>  (180) 
NO_CHARGES

$$$$
UGONEJ
     RDKit          3D

 24 26  0  0  0  0  0  0  0  0999 V2000
    4.7435    7.4787    4.5414 C   0  0  0  0  0  0  0  0  0  0  0  0
    5.3898    6.4734    5.2197 C   0  0  0  0  0  0  0  0  0  0  0  0
    5.1046    5.1462    4.9692 C   0  0  0  0  0  0  0  0  0  0  0  0
    4.1287    4.7873    4.0425 C   0  0  0  0  0  0  0  0  0  0  0  0
    3.4779    5.7913    3.3708 C   0  0  0  0  0  0  0  0  0  0  0  0
    2.3802    5.6996    2.3391 C   0  0  2  0  0  0  0  0  0  0  0  0
    2.8172    4.9593    1.0722 C   0  0  0  0  0  0  0  0  0  0  0  0
    4.3678    5.6017    0.4143 S   0  0  0  0  0  0  0  0  0  0  0  0
    4.1842    5.3224   -1.3829 C   0  0  0  0  0  0  0  0  0  0  0  0
    3.0807    6.0258   -2.1126 C   0  0  0  0  0  0  0  0  0  0  0  0
    2.9897    7.5228   -1.9365 C   0  0  2  0  0  0  0  0  0  0  0  0
    2.5029    7.8915   -0.6181 N   0  0  0  0  0  0  0  0  0  0  0  0
    1.2691    7.6116   -0.2276 C   0  0  0  0  0  0  0  0  0  0  0  0
    0.9953    7.5867    1.2768 C   0  0  0  0  0  0  0  0  0  0  0  0
    2.1066    7.1327    2.0765 N   0  0  0  0  0  0  0  0  0  0  0  0
    2.9195    7.9604    2.7767 C   0  0  0  0  0  0  0  0  0  0  0  0
    3.7888    7.1128    3.6137 C   0  0  0  0  0  0  0  0  0  0  0  0
    2.2125    8.1977   -3.0612 C   0  0  0  0  0  0  0  0  0  0  0  0
    1.4206   10.2397   -3.9222 C   0  0  0  0  0  0  0  0  0  0  0  0
    1.2516    5.0822    2.9036 O   0  0  0  0  0  0  0  0  0  0  0  0
    0.3526    7.3558   -1.0087 O   0  0  0  0  0  0  0  0  0  0  0  0
    2.8976    9.1868    2.6968 O   0  0  0  0  0  0  0  0  0  0  0  0
    1.9014    7.6428   -4.0589 O   0  0  0  0  0  0  0  0  0  0  0  0
    2.0299    9.4987   -2.8216 O   0  0  0  0  0  0  0  0  0  0  0  0
  2  1  2  0
  3  2  1  0
  4  3  2  0
  5  4  1  0
  6  5  1  0
  7  6  1  0
  8  7  1  0
  9  8  1  0
 10  9  1  0
 11 10  1  0
 12 11  1  0
 13 12  1  0
 14 13  1  0
 15  6  1  0
 16 15  1  0
 17  1  1  0
 11 18  1  6
  6 20  1  1
 21 13  2  0
 22 16  2  0
 23 18  2  0
 24 18  1  0
  5 17  2  0
 14 15  1  0
 16 17  1  0
 19 24  1  0
M  END
>  <_TriposChargeType>  (181) 
NO_CHARGES

$$$$
UNDECO
     RDKit          3D

 12 12  0  0  0  0  0  0  0  0999 V2000
   -1.2868    1.7437    4.8095 C   0  0  0  0  0  0  0  0  0  0  0  0
   -3.5976    2.8204    4.5841 C   0  0  0  0  0  0  0  0  0  0  0  0
   -2.1839    2.9071    5.1833 C   0  0  0  0  0  0  0  0  0  0  0  0
    0.0738    2.0161    4.2032 C   0  0  0  0  0  0  0  0  0  0  0  0
    0.6724    0.8407    3.4312 C   0  0  0  0  0  0  0  0  0  0  0  0
   -0.1866    0.3721    2.2575 C   0  0  0  0  0  0  0  0  0  0  0  0
   -0.4254    1.4182    1.1577 C   0  0  0  0  0  0  0  0  0  0  0  0
   -1.8593    1.4130    0.5956 C   0  0  0  0  0  0  0  0  0  0  0  0
   -2.9398    1.7917    1.6205 C   0  0  0  0  0  0  0  0  0  0  0  0
   -2.8204    3.2144    2.1497 C   0  0  0  0  0  0  0  0  0  0  0  0
   -3.7811    3.5800    3.2782 C   0  0  0  0  0  0  0  0  0  0  0  0
   -1.6469    0.6052    5.0212 O   0  0  0  0  0  0  0  0  0  0  0  0
  1  3  1  0
  2  3  1  0
  4  1  1  0
  5  4  1  0
  6  5  1  0
  7  6  1  0
  8  7  1  0
  9  8  1  0
 10  9  1  0
 11  2  1  0
 12  1  2  0
 10 11  1  0
M  END
>  <_TriposChargeType>  (182) 
NO_CHARGES

$$$$
UZUKUW
     RDKit          3D

 54 57  0  0  0  0  0  0  0  0999 V2000
    4.0453   17.8001    4.2129 N   0  0  0  0  0  0  0  0  0  0  0  0
    4.6018   17.1861    6.8243 N   0  0  0  0  0  0  0  0  0  0  0  0
    6.1791   14.9499    6.5460 N   0  0  0  0  0  0  0  0  0  0  0  0
    7.7093   14.7899    3.2794 N   0  0  0  0  0  0  0  0  0  0  0  0
    8.0291   14.3495    0.5875 N   0  0  0  0  0  0  0  0  0  0  0  0
    6.7336   16.0521   -1.0431 N   0  0  0  0  0  0  0  0  0  0  0  0
    4.1170   15.0464   -0.7699 N   0  0  0  0  0  0  0  0  0  0  0  0
    3.4519   15.5956    2.0657 N   0  0  0  0  0  0  0  0  0  0  0  0
    2.6541   19.4763    4.8212 O   0  0  0  0  0  0  0  0  0  0  0  0
    2.7867   15.9108    7.1157 O   0  0  0  0  0  0  0  0  0  0  0  0
    5.2255   15.0229    4.5131 O   0  0  0  0  0  0  0  0  0  0  0  0
    8.7957   12.8922    3.8009 O   0  0  0  0  0  0  0  0  0  0  0  0
    9.9743   15.4778    0.4428 O   0  0  0  0  0  0  0  0  0  0  0  0
    6.9785   14.9597   -2.9839 O   0  0  0  0  0  0  0  0  0  0  0  0
    5.4660   13.4410    0.0346 O   0  0  0  0  0  0  0  0  0  0  0  0
    5.4292   16.5842    1.6339 O   0  0  0  0  0  0  0  0  0  0  0  0
    5.9418   19.5481    6.2006 O   0  0  0  0  0  0  0  0  0  0  0  0
    3.4683   18.6057    5.1119 C   0  0  0  0  0  0  0  0  0  0  0  0
    3.8895   18.4186    6.5757 C   0  0  2  0  0  0  0  0  0  0  0  0
    3.9992   16.0065    7.0342 C   0  0  0  0  0  0  0  0  0  0  0  0
    4.8949   14.7959    7.2060 C   0  0  2  0  0  0  0  0  0  0  0  0
    6.2365   15.0493    5.2083 C   0  0  0  0  0  0  0  0  0  0  0  0
    7.6048   15.3366    4.6226 C   0  0  2  0  0  0  0  0  0  0  0  0
    8.3355   13.6655    2.9777 C   0  0  0  0  0  0  0  0  0  0  0  0
    8.5087   13.3498    1.5080 C   0  0  0  0  0  0  0  0  0  0  0  0
    8.8141   15.3323    0.1165 C   0  0  0  0  0  0  0  0  0  0  0  0
    8.1633   16.3079   -0.8492 C   0  0  2  0  0  0  0  0  0  0  0  0
    6.2662   15.3179   -2.0572 C   0  0  0  0  0  0  0  0  0  0  0  0
    4.7955   14.9615   -2.0716 C   0  0  2  0  0  0  0  0  0  0  0  0
    4.5413   14.2472    0.2286 C   0  0  0  0  0  0  0  0  0  0  0  0
    3.9151   14.2969    1.6021 C   0  0  2  0  0  0  0  0  0  0  0  0
    4.2872   16.6347    2.1144 C   0  0  0  0  0  0  0  0  0  0  0  0
    3.7583   17.9106    2.7766 C   0  0  2  0  0  0  0  0  0  0  0  0
    4.7668   19.6098    6.9793 C   0  0  1  0  0  0  0  0  0  0  0  0
    5.0548   19.6651    8.4721 C   0  0  0  0  0  0  0  0  0  0  0  0
    5.1204   14.4876    8.6891 C   0  0  0  0  0  0  0  0  0  0  0  0
    7.8190   16.8537    4.5603 C   0  0  0  0  0  0  0  0  0  0  0  0
    9.2333   17.2725    4.1565 C   0  0  0  0  0  0  0  0  0  0  0  0
    9.2323   18.7465    3.7743 C   0  0  0  0  0  0  0  0  0  0  0  0
   10.2224   16.9992    5.2653 C   0  0  0  0  0  0  0  0  0  0  0  0
    8.4124   17.7470   -0.4135 C   0  0  0  0  0  0  0  0  0  0  0  0
    3.9705   15.8945   -2.9592 C   0  0  0  0  0  0  0  0  0  0  0  0
    2.6053   15.9080   -2.3120 C   0  0  0  0  0  0  0  0  0  0  0  0
    2.9230   15.9006   -0.8315 C   0  0  0  0  0  0  0  0  0  0  0  0
    2.6832   13.3922    1.7671 C   0  0  0  0  0  0  0  0  0  0  0  0
    2.0109   13.9866    2.9908 C   0  0  0  0  0  0  0  0  0  0  0  0
    2.1625   15.4793    2.7889 C   0  0  0  0  0  0  0  0  0  0  0  0
    4.3917   19.1637    2.1680 C   0  0  0  0  0  0  0  0  0  0  0  0
    3.9551   19.3659    0.7347 C   0  0  0  0  0  0  0  0  0  0  0  0
    4.8642   19.2882   -0.3002 C   0  0  0  0  0  0  0  0  0  0  0  0
    4.4747   19.4482   -1.6190 C   0  0  0  0  0  0  0  0  0  0  0  0
    3.1762   19.6704   -1.9138 C   0  0  0  0  0  0  0  0  0  0  0  0
    2.2363   19.7562   -0.9064 C   0  0  0  0  0  0  0  0  0  0  0  0
    2.6350   19.6037    0.4197 C   0  0  0  0  0  0  0  0  0  0  0  0
  1 18  1  0
 19  2  1  6
  3 21  1  0
  4 23  1  0
  5 25  1  0
  6 27  1  0
  7 29  1  0
  8 31  1  0
  9 18  2  0
 10 20  2  0
 11 22  2  0
 12 24  2  0
 13 26  2  0
 14 28  2  0
 15 30  2  0
 16 32  2  0
 18 19  1  0
 20  2  1  0
 21 20  1  0
 22  3  1  0
 23 22  1  0
 24  4  1  0
 25 24  1  0
 26  5  1  0
 27 26  1  0
 28  6  1  0
 29 28  1  0
 30  7  1  0
 31 30  1  0
 32  8  1  0
 33  1  1  0
 34 17  1  0
 34 35  1  1
 21 36  1  1
 23 37  1  6
 38 37  1  0
 39 38  1  0
 40 38  1  0
 27 41  1  1
 29 42  1  6
 43 42  1  0
 44  7  1  0
 31 45  1  6
 46 45  1  0
 47  8  1  0
 33 48  1  6
 49 48  1  0
 50 49  2  0
 51 50  1  0
 52 51  2  0
 53 52  1  0
 54 49  1  0
 19 34  1  0
 32 33  1  0
 43 44  1  0
 46 47  1  0
 53 54  2  0
M  END
>  <_TriposChargeType>  (183) 
NO_CHARGES

$$$$
VAWTAQ
     RDKit          3D

 45 47  0  0  0  0  0  0  0  0999 V2000
   -1.1534    1.9313   11.6080 O   0  0  0  0  0  0  0  0  0  0  0  0
    0.5609    3.5120   14.0245 O   0  0  0  0  0  0  0  0  0  0  0  0
    0.7722    2.5616   18.4195 N   0  0  0  0  0  0  0  0  0  0  0  0
    3.9538    2.4183   16.6800 O   0  0  0  0  0  0  0  0  0  0  0  0
   -4.4889    3.9720   13.6432 O   0  0  0  0  0  0  0  0  0  0  0  0
    1.6390    2.5579   12.3024 N   0  0  0  0  0  0  0  0  0  0  0  0
   -0.8798    1.2165   15.4959 O   0  0  0  0  0  0  0  0  0  0  0  0
    1.8574    2.1054   15.9263 N   0  0  0  0  0  0  0  0  0  0  0  0
   -2.3829    3.3020   14.1686 N   0  0  0  0  0  0  0  0  0  0  0  0
    2.2577    1.8857   14.5557 C   0  0  0  0  0  0  0  0  0  0  0  0
    0.7995    4.7911   18.8071 O   0  0  0  0  0  0  0  0  0  0  0  0
   -1.3751    4.1916   11.7436 N   0  0  0  0  0  0  0  0  0  0  0  0
    1.4089    2.7268   13.6180 C   0  0  0  0  0  0  0  0  0  0  0  0
   -1.9986    2.9597   17.7951 N   0  0  0  0  0  0  0  0  0  0  0  0
   -2.0295    3.5239   16.5615 C   0  0  0  0  0  0  0  0  0  0  0  0
   -2.8249    4.2651   11.9588 C   0  0  2  0  0  0  0  0  0  0  0  0
    2.7438    2.3331   16.8900 C   0  0  0  0  0  0  0  0  0  0  0  0
   -1.5420    4.6214   16.3517 O   0  0  0  0  0  0  0  0  0  0  0  0
    2.2161    2.4286   18.3210 C   0  0  2  0  0  0  0  0  0  0  0  0
   -1.3429    3.6884   18.8776 C   0  0  2  0  0  0  0  0  0  0  0  0
   -2.3017    1.2319   15.4883 C   0  0  1  0  0  0  0  0  0  0  0  0
   -3.2940    3.8214   13.3474 C   0  0  0  0  0  0  0  0  0  0  0  0
    0.1899    3.7369   18.6827 C   0  0  0  0  0  0  0  0  0  0  0  0
   -3.6355    3.5305   10.8894 C   0  0  0  0  0  0  0  0  0  0  0  0
    0.8253    3.2822   11.3224 C   0  0  2  0  0  0  0  0  0  0  0  0
    2.4498    1.2731   20.5864 C   0  0  0  0  0  0  0  0  0  0  0  0
   -2.7025    2.7070   15.4531 C   0  0  2  0  0  0  0  0  0  0  0  0
   -1.7148    3.0442   20.2197 C   0  0  0  0  0  0  0  0  0  0  0  0
   -1.0099    3.6473   21.4354 C   0  0  0  0  0  0  0  0  0  0  0  0
   -0.6803    3.0684   11.5839 C   0  0  0  0  0  0  0  0  0  0  0  0
    2.6355    1.6690   11.6857 C   0  0  0  0  0  0  0  0  0  0  0  0
    3.3153    1.9548   21.4340 C   0  0  0  0  0  0  0  0  0  0  0  0
    3.0692    2.0282   22.8048 C   0  0  0  0  0  0  0  0  0  0  0  0
    2.7123    1.1937   19.1004 C   0  0  0  0  0  0  0  0  0  0  0  0
   -3.1723    3.7538    9.4429 C   0  0  0  0  0  0  0  0  0  0  0  0
    1.3509    0.6435   21.1487 C   0  0  0  0  0  0  0  0  0  0  0  0
   -1.5093    2.9744   22.7100 C   0  0  0  0  0  0  0  0  0  0  0  0
    1.1145    0.7060   22.5194 C   0  0  0  0  0  0  0  0  0  0  0  0
    1.9753    1.4090   23.3427 C   0  0  0  0  0  0  0  0  0  0  0  0
    2.6549    2.1142   10.2287 C   0  0  0  0  0  0  0  0  0  0  0  0
   -2.8567    0.4371   14.3150 C   0  0  0  0  0  0  0  0  0  0  0  0
   -4.1118    3.0457    8.4990 C   0  0  0  0  0  0  0  0  0  0  0  0
    1.2622    2.6438    9.9883 C   0  0  0  0  0  0  0  0  0  0  0  0
   -1.2251    5.1481   21.5340 C   0  0  0  0  0  0  0  0  0  0  0  0
   -3.0559    5.2340    9.0976 C   0  0  0  0  0  0  0  0  0  0  0  0
  1 30  2  0
  2 13  2  0
  4 17  2  0
  5 22  2  0
  6 13  1  0
 10  8  1  0
 11 23  2  0
 13 10  1  0
 14 15  1  0
 15 18  2  0
 16 12  1  0
 17  8  1  0
 19  3  1  0
 20 14  1  0
 21  7  1  0
 22  9  1  0
 23  3  1  0
 16 24  1  6
 25  6  1  0
 26 32  2  0
 27  9  1  6
 20 28  1  1
 29 28  1  0
 30 12  1  0
 31  6  1  0
 33 32  1  0
 19 34  1  1
 35 24  1  0
 36 26  1  0
 37 29  1  0
 38 36  2  0
 39 33  2  0
 40 31  1  0
 21 41  1  6
 42 35  1  0
 25 43  1  6
 44 29  1  0
 45 35  1  0
 15 27  1  0
 16 22  1  0
 17 19  1  0
 20 23  1  0
 21 27  1  0
 25 30  1  0
 26 34  1  0
 38 39  1  0
 40 43  1  0
M  END
>  <_TriposChargeType>  (184) 
NO_CHARGES

$$$$
VENZOD
     RDKit          3D

 12 12  0  0  0  0  0  0  0  0999 V2000
    1.6902    2.1526    8.0058 O   0  0  0  0  0  0  0  0  0  0  0  0
    1.4139    1.6646    6.6895 C   0  0  0  0  0  3  0  0  0  0  0  0
    0.0948    2.2502    6.1707 C   0  0  0  0  0  2  0  0  0  0  0  0
    0.0743    3.7811    6.0202 C   0  0  0  0  0  2  0  0  0  0  0  0
   -0.8233    4.3269    4.9154 C   0  0  0  0  0  2  0  0  0  0  0  0
   -0.6451    3.7883    3.4860 C   0  0  0  0  0  2  0  0  0  0  0  0
    0.8312    5.5541    2.6275 O   0  0  0  0  0  0  0  0  0  0  0  0
    0.6342    4.1317    2.7296 C   0  0  0  0  0  3  0  0  0  0  0  0
    1.9340    3.5624    3.2683 C   0  0  0  0  0  2  0  0  0  0  0  0
    1.9578    2.0279    3.3815 C   0  0  0  0  0  2  0  0  0  0  0  0
    2.8302    1.4441    4.4763 C   0  0  0  0  0  2  0  0  0  0  0  0
    2.6828    1.9827    5.8846 C   0  0  0  0  0  2  0  0  0  0  0  0
  2  1  1  0
  3  2  1  0
  4  3  1  0
  5  4  1  0
  6  5  1  0
  8  6  1  0
  9  8  1  0
 10  9  1  0
 11 10  1  0
 12  2  1  0
  7  8  1  0
 11 12  1  0
M  RAD  8   2   2   3   3   4   3   5   3   6   3   8   2   9   3  10   3
M  RAD  2  11   3  12   3
M  END
>  <_TriposChargeType>  (185) 
NO_CHARGES

$$$$
VEVHAF
     RDKit          3D

 25 27  0  0  0  0  0  0  0  0999 V2000
    4.4270    9.2730   20.3588 N   0  0  0  0  0  0  0  0  0  0  0  0
    4.7013    7.9500   20.9258 C   0  0  0  0  0  0  0  0  0  0  0  0
    3.7076   10.1725   21.2477 C   0  0  0  0  0  0  0  0  0  0  0  0
    4.5372   10.4827   22.4970 C   0  0  0  0  0  0  0  0  0  0  0  0
    4.3741   12.1335   23.1817 S   0  0  0  0  0  0  0  0  0  0  0  0
    3.0564   12.6229   22.8886 O   0  0  0  0  0  0  0  0  0  0  0  0
    4.8186   12.0416   24.5415 O   0  0  0  0  0  0  0  0  0  0  0  0
    5.4355   13.1408   22.4538 N   0  0  0  0  0  0  0  0  0  0  0  0
    5.2369   13.5494   21.0483 C   0  0  1  0  0  0  0  0  0  0  0  0
    6.2067   14.6768   20.7096 C   0  0  0  0  0  0  0  0  0  0  0  0
    5.9176   15.9863   21.4135 C   0  0  0  0  0  0  0  0  0  0  0  0
    4.7968   16.7280   21.0843 C   0  0  0  0  0  0  0  0  0  0  0  0
    6.7940   16.4731   22.3649 C   0  0  0  0  0  0  0  0  0  0  0  0
    4.5470   17.9526   21.6994 C   0  0  0  0  0  0  0  0  0  0  0  0
    6.5475   17.7085   22.9775 C   0  0  0  0  0  0  0  0  0  0  0  0
    5.4278   18.4381   22.6340 C   0  0  0  0  0  0  0  0  0  0  0  0
    5.5189   12.3559   20.1209 C   0  0  0  0  0  0  0  0  0  0  0  0
    6.4717   11.6128   20.3396 O   0  0  0  0  0  0  0  0  0  0  0  0
    4.6484   12.1158   19.1431 N   0  0  0  0  0  0  0  0  0  0  0  0
    4.6981   10.8562   18.3839 C   0  0  2  0  0  0  0  0  0  0  0  0
    3.3438   10.8360   17.6656 C   0  0  0  0  0  0  0  0  0  0  0  0
    3.0810   12.3181   17.4061 C   0  0  0  0  0  0  0  0  0  0  0  0
    3.5386   12.9857   18.7059 C   0  0  0  0  0  0  0  0  0  0  0  0
    4.9757    9.5562   19.1479 C   0  0  0  0  0  0  0  0  0  0  0  0
    5.6100    8.7147   18.5281 O   0  0  0  0  0  0  0  0  0  0  0  0
  1  2  1  0
  3  1  1  0
  4  3  1  0
  5  4  1  0
  6  5  2  0
  7  5  2  0
  8  5  1  0
  9  8  1  0
  9 10  1  6
 11 10  1  0
 12 11  2  0
 13 11  1  0
 14 12  1  0
 15 13  2  0
 16 14  2  0
 17  9  1  0
 18 17  2  0
 19 17  1  0
 20 19  1  0
 20 21  1  1
 22 21  1  0
 23 19  1  0
 24  1  1  0
 25 24  2  0
 15 16  1  0
 20 24  1  0
 22 23  1  0
M  END
>  <_TriposChargeType>  (186) 
NO_CHARGES

$$$$
VORZEH
     RDKit          3D

 32 33  0  0  0  0  0  0  0  0999 V2000
   -1.4346   -1.8299    3.1931 O   0  0  0  0  0  0  0  0  0  0  0  0
    0.0502   -0.0251    6.0941 O   0  0  0  0  0  0  0  0  0  0  0  0
    1.3628    0.6831    9.5235 O   0  0  0  0  0  0  0  0  0  0  0  0
    5.2579    1.4053    8.4303 O   0  0  0  0  0  0  0  0  0  0  0  0
    2.6351    4.4324    7.3613 O   0  0  0  0  0  0  0  0  0  0  0  0
    0.6936    2.5926    3.8528 O   0  0  0  0  0  0  0  0  0  0  0  0
    0.3248   -0.4917    3.4294 N   0  0  0  0  0  0  0  0  0  0  0  0
    1.5651   -1.5506    6.6979 N   0  0  0  0  0  0  0  0  0  0  0  0
    2.6027    0.8381    7.6730 N   0  0  0  0  0  0  0  0  0  0  0  0
    1.1970    2.9014    6.5816 N   0  0  0  0  0  0  0  0  0  0  0  0
   -1.2116    3.7926    4.0742 N   0  0  0  0  0  0  0  0  0  0  0  0
   -1.8011    3.4881    2.7735 C   0  0  0  0  0  0  0  0  0  0  0  0
   -2.9233    2.4921    2.8721 C   0  0  0  0  0  0  0  0  0  0  0  0
   -2.4929    1.1231    3.3411 C   0  0  0  0  0  0  0  0  0  0  0  0
   -1.6238    0.3814    2.3372 C   0  0  0  0  0  0  0  0  0  0  0  0
   -0.9160   -0.7473    3.0080 C   0  0  0  0  0  0  0  0  0  0  0  0
    1.0191   -1.3536    4.3357 C   0  0  0  0  0  0  0  0  0  0  0  0
    0.8307   -0.9275    5.7833 C   0  0  0  0  0  0  0  0  0  0  0  0
    1.4148   -1.2377    8.1205 C   0  0  1  0  0  0  0  0  0  0  0  0
    2.3323   -2.2588    8.7904 C   0  0  0  0  0  0  0  0  0  0  0  0
    2.7929   -3.1402    7.8042 C   0  0  0  0  0  0  0  0  0  0  0  0
    2.4940   -2.6695    6.4709 C   0  0  0  0  0  0  0  0  0  0  0  0
    1.7797    0.1816    8.4806 C   0  0  0  0  0  0  0  0  0  0  0  0
    3.0788    2.1778    7.9530 C   0  0  1  0  0  0  0  0  0  0  0  0
    4.5469    2.3105    7.6181 C   0  0  0  0  0  0  0  0  0  0  0  0
    6.5011    0.8912    7.9233 C   0  0  0  0  0  0  0  0  0  0  0  0
    7.4233    2.0087    7.5018 C   0  0  0  0  0  0  0  0  0  0  0  0
    7.0765    0.1006    9.0574 C   0  0  0  0  0  0  0  0  0  0  0  0
    6.2249   -0.0237    6.7324 C   0  0  0  0  0  0  0  0  0  0  0  0
    2.2693    3.2646    7.2599 C   0  0  0  0  0  0  0  0  0  0  0  0
    0.3352    3.8191    5.8736 C   0  0  0  0  0  0  0  0  0  0  0  0
   -0.0389    3.3344    4.5031 C   0  0  0  0  0  0  0  0  0  0  0  0
  1 16  2  0
  2 18  2  0
  3 23  2  0
  4 25  1  0
  5 30  2  0
  6 32  2  0
  7 16  1  0
  8 18  1  0
  9 23  1  0
 10 30  1  0
 11 12  1  0
 12 13  1  0
 13 14  1  0
 14 15  1  0
 15 16  1  0
 17  7  1  0
 18 17  1  0
 19  8  1  0
 19 20  1  1
 21 20  1  0
 22  8  1  0
 23 19  1  0
 24  9  1  0
 24 25  1  6
 26  4  1  0
 27 26  1  0
 28 26  1  0
 29 26  1  0
 30 24  1  0
 31 10  1  0
 32 11  1  0
 21 22  1  0
 31 32  1  0
M  END
>  <_TriposChargeType>  (187) 
NO_CHARGES

$$$$
WACYAB
     RDKit          3D

 14 16  0  0  0  0  0  0  0  0999 V2000
   11.9815    0.3022   15.5658 O   0  0  0  0  0  0  0  0  0  0  0  0
    5.5818    0.1267   18.4600 O   0  0  0  0  0  0  0  0  0  0  0  0
   11.4654   -0.4472   16.6933 C   0  0  2  0  0  0  0  0  0  0  0  0
   10.8519   -0.5967   15.3658 C   0  0  1  0  0  0  0  0  0  0  0  0
    9.5686    0.0518   14.9288 C   0  0  0  0  0  0  0  0  0  0  0  0
    8.4981   -0.9683   14.7306 C   0  0  0  0  0  0  0  0  0  0  0  0
    7.2963   -0.9958   15.2509 C   0  0  0  0  0  0  0  0  0  0  0  0
    6.6971   -0.0104   16.2112 C   0  0  0  0  0  0  0  0  0  0  0  0
    6.1894   -0.7090   17.4418 C   0  0  1  0  0  0  0  0  0  0  0  0
    6.7950   -0.5864   18.7792 C   0  0  1  0  0  0  0  0  0  0  0  0
    7.9946    0.2405   19.1267 C   0  0  0  0  0  0  0  0  0  0  0  0
    9.1812   -0.6258   19.4258 C   0  0  0  0  0  0  0  0  0  0  0  0
   10.3731   -0.5837   18.8891 C   0  0  0  0  0  0  0  0  0  0  0  0
   10.8794    0.3359   17.8278 C   0  0  0  0  0  0  0  0  0  0  0  0
  3  1  1  0
  9  2  1  0
  3  4  1  0
  4  1  1  0
  4  5  1  1
  6  5  1  0
  7  6  2  0
  8  7  1  0
  9  8  1  6
 10  2  1  0
 10 11  1  6
 12 11  1  0
 13 12  2  0
  3 14  1  1
  9 10  1  0
 13 14  1  0
M  END
>  <_TriposChargeType>  (188) 
NO_CHARGES

$$$$
WAPHUR
     RDKit          3D

 27 31  0  0  0  0  0  0  0  0999 V2000
    4.2805    3.6624   13.3524 C   0  0  0  0  0  0  0  0  0  0  0  0
    6.1245    5.2675   13.1103 C   0  0  0  0  0  0  0  0  0  0  0  0
   -3.6069   -1.5323   10.5116 C   0  0  0  0  0  0  0  0  0  0  0  0
    3.7951    2.9995    7.7035 O   0  0  0  0  0  0  0  0  0  0  0  0
    4.4122    5.2300   11.2019 C   0  0  1  0  0  0  0  0  0  0  0  0
    3.1898    4.5480   10.5585 C   0  0  2  0  0  0  0  0  0  0  0  0
    1.8771    4.8318   11.2782 C   0  0  0  0  0  0  0  0  0  0  0  0
   -0.3931    4.1592   10.9260 C   0  0  0  0  0  0  0  0  0  0  0  0
    3.4388    3.0402   10.3785 C   0  0  2  0  0  0  0  0  0  0  0  0
    4.8870    2.5532   10.5966 C   0  0  0  0  0  0  0  0  0  0  0  0
    5.7820    3.6410   11.1921 C   0  0  2  0  0  0  0  0  0  0  0  0
    5.0966    4.4135   12.3436 C   0  0  0  0  0  0  0  0  0  0  0  0
    5.6296    4.9003   10.3087 C   0  0  0  0  0  0  0  0  0  0  0  0
   -1.5273   -0.2466   11.2477 C   0  0  1  0  0  0  0  0  0  0  0  0
   -0.2559    0.4942   10.8496 C   0  0  2  0  0  0  0  0  0  0  0  0
   -0.4784    1.9075   10.3076 C   0  0  0  0  0  0  0  0  0  0  0  0
    3.0372    0.7559    8.8049 C   0  0  0  0  0  0  0  0  0  0  0  0
    0.5905   -0.3310    9.8343 C   0  0  2  0  0  0  0  0  0  0  0  0
    0.2034   -1.8295    9.7536 C   0  0  0  0  0  0  0  0  0  0  0  0
   -1.1279   -2.1434   10.4069 C   0  0  2  0  0  0  0  0  0  0  0  0
   -2.1992   -1.0623   10.0972 C   0  0  0  0  0  0  0  0  0  0  0  0
   -1.1004   -1.6026   11.8529 C   0  0  0  0  0  0  0  0  0  0  0  0
   -2.3136   -0.5104    8.6860 C   0  0  0  0  0  0  0  0  0  0  0  0
    0.8168    4.5484   10.3393 O   0  0  0  0  0  0  0  0  0  0  0  0
   -0.4158    2.8450   11.3796 O   0  0  0  0  0  0  0  0  0  0  0  0
    2.8050    2.5663    8.7314 S   0  0  0  0  0  0  0  0  0  0  0  0
    2.3801   -0.1465   10.2036 S   0  0  0  0  0  0  0  0  0  0  0  0
  4 26  2  0
  5  6  1  0
  6  7  1  1
  9  6  1  0
  9 10  1  6
 11 10  1  6
 12  1  1  0
  5 13  1  6
 14 15  1  0
 15 16  1  6
 18 15  1  0
 19 18  1  0
 20 19  1  6
 21  3  1  0
 14 22  1  1
 23 21  1  0
 24  7  1  0
 25  8  1  0
  9 26  1  0
 27 17  1  0
  2 12  1  0
  5 12  1  0
  8 24  1  0
 11 12  1  0
 11 13  1  0
 14 21  1  0
 16 25  1  0
 26 17  1  1
 18 27  1  1
 20 21  1  0
 20 22  1  0
M  END
>  <_TriposChargeType>  (189) 
NO_CHARGES

$$$$
WATDIE
     RDKit          3D

 20 20  0  0  0  0  0  0  0  0999 V2000
    6.4645    0.0000    3.7168 O   0  0  0  0  0  0  0  0  0  0  0  0
    5.5523   -1.7585    4.7300 O   0  0  0  0  0  0  0  0  0  0  0  0
    2.8250   -1.5404    3.3161 O   0  0  0  0  0  0  0  0  0  0  0  0
    2.2665    2.0722    1.2550 O   0  0  0  0  0  0  0  0  0  0  0  0
    8.2607    2.3749   -1.1793 O   0  0  0  0  0  0  0  0  0  0  0  0
    8.4182   -1.8820    1.1172 O   0  0  0  0  0  0  0  0  0  0  0  0
    5.4401   -0.6443    4.2560 C   0  0  0  0  0  0  0  0  0  0  0  0
    4.1628    0.1902    4.2496 C   0  0  0  0  0  0  0  0  0  0  0  0
    3.1593   -0.1354    3.1549 C   0  0  1  0  0  0  0  0  0  0  0  0
    3.6482    0.1444    1.7500 C   0  0  0  0  0  0  0  0  0  0  0  0
    3.6398    1.5942    1.3074 C   0  0  1  0  0  0  0  0  0  0  0  0
    4.1406    1.7635   -0.1266 C   0  0  0  0  0  0  0  0  0  0  0  0
    5.5853    1.3373   -0.4022 C   0  0  0  0  0  0  0  0  0  0  0  0
    6.5911    2.0124    0.5086 C   0  0  0  0  0  0  0  0  0  0  0  0
    8.0649    1.7914    0.1185 C   0  0  1  0  0  0  0  0  0  0  0  0
    8.4929    0.3336    0.1016 C   0  0  0  0  0  0  0  0  0  0  0  0
    8.0306   -0.5108    1.2744 C   0  0  2  0  0  0  0  0  0  0  0  0
    8.5512   -0.0597    2.6092 C   0  0  0  0  0  0  0  0  0  0  0  0
    7.7907   -0.6174    3.7950 C   0  0  1  0  0  0  0  0  0  0  0  0
    8.4052   -0.2191    5.1217 C   0  0  0  0  0  0  0  0  0  0  0  0
  1  7  1  0
  2  7  2  0
  9  3  1  6
 11  4  1  6
 15  5  1  6
 17  6  1  6
  7  8  1  0
  8  9  1  0
  9 10  1  0
 10 11  1  0
 11 12  1  0
 12 13  1  0
 13 14  1  0
 14 15  1  0
 15 16  1  0
 16 17  1  0
 17 18  1  0
 18 19  1  0
 19  1  1  0
 19 20  1  1
M  END
>  <_TriposChargeType>  (190) 
NO_CHARGES

$$$$
WECCAI
     RDKit          3D

 18 18  0  0  0  0  0  0  0  0999 V2000
    1.4008    6.9864   15.8031 O   0  0  0  0  0  0  0  0  0  0  0  0
    0.5686    6.0944   15.2341 C   0  0  0  0  0  0  0  0  0  0  0  0
    0.8057    4.9253   15.1400 O   0  0  0  0  0  0  0  0  0  0  0  0
   -0.7114    6.7187   14.7607 C   0  0  0  0  0  0  0  0  0  0  0  0
   -0.6548    8.1574   14.3123 C   0  0  2  0  0  0  0  0  0  0  0  0
   -1.9997    8.6607   13.8248 C   0  0  0  0  0  0  0  0  0  0  0  0
    0.3123    8.2218   13.2213 O   0  0  0  0  0  0  0  0  0  0  0  0
    0.9424    9.4051   13.0394 C   0  0  0  0  0  0  0  0  0  0  0  0
    0.7143   10.3850   13.6994 O   0  0  0  0  0  0  0  0  0  0  0  0
    1.9618    9.3266   11.9358 C   0  0  0  0  0  0  0  0  0  0  0  0
    2.9089    8.1537   12.0910 C   0  0  1  0  0  0  0  0  0  0  0  0
    4.1001    8.2170   11.1677 C   0  0  0  0  0  0  0  0  0  0  0  0
    3.3553    8.2199   13.4862 O   0  0  0  0  0  0  0  0  0  0  0  0
    3.6144    7.0517   14.0960 C   0  0  0  0  0  0  0  0  0  0  0  0
    3.6466    5.9951   13.5207 O   0  0  0  0  0  0  0  0  0  0  0  0
    3.7892    7.2361   15.5884 C   0  0  0  0  0  0  0  0  0  0  0  0
    2.6866    6.5012   16.3408 C   0  0  1  0  0  0  0  0  0  0  0  0
    2.7066    6.7868   17.8097 C   0  0  0  0  0  0  0  0  0  0  0  0
  1  2  1  0
  2  3  2  0
  4  2  1  0
  5  4  1  0
  5  6  1  6
  7  5  1  0
  8  7  1  0
  9  8  2  0
 10  8  1  0
 11 10  1  0
 11 12  1  6
 13 11  1  0
 14 13  1  0
 15 14  2  0
 16 14  1  0
 17  1  1  0
 17 18  1  1
 16 17  1  0
M  END
>  <_TriposChargeType>  (191) 
NO_CHARGES

$$$$
WECCUC01
     RDKit          3D

 48 48  0  0  0  0  0  0  0  0999 V2000
    5.6894    8.6252   16.1530 O   0  0  0  0  0  0  0  0  0  0  0  0
    4.4109    9.0246   16.2260 C   0  0  0  0  0  0  0  0  0  0  0  0
    3.4703    8.2603   16.1260 O   0  0  0  0  0  0  0  0  0  0  0  0
    4.2891   10.4949   16.4357 C   0  0  0  0  0  0  0  0  0  0  0  0
    3.2081   11.1349   15.6145 C   0  0  1  0  0  0  0  0  0  0  0  0
    2.9733   12.5769   15.9299 C   0  0  0  0  0  0  0  0  0  0  0  0
    3.6641   10.9635   14.2451 O   0  0  0  0  0  0  0  0  0  0  0  0
    2.7360   10.8141   13.2855 C   0  0  0  0  0  0  0  0  0  0  0  0
    1.5606   10.9367   13.4874 O   0  0  0  0  0  0  0  0  0  0  0  0
    3.3498   10.4430   11.9719 C   0  0  0  0  0  0  0  0  0  0  0  0
    2.5956    9.3186   11.3123 C   0  0  1  0  0  0  0  0  0  0  0  0
    3.2554    8.7950   10.0795 C   0  0  0  0  0  0  0  0  0  0  0  0
    2.5496    8.2761   12.3258 O   0  0  0  0  0  0  0  0  0  0  0  0
    1.4450    7.5354   12.4470 C   0  0  0  0  0  0  0  0  0  0  0  0
    0.4722    7.6455   11.7527 O   0  0  0  0  0  0  0  0  0  0  0  0
    1.5892    6.5715   13.5739 C   0  0  0  0  0  0  0  0  0  0  0  0
    2.9410    5.9000   13.6355 C   0  0  1  0  0  0  0  0  0  0  0  0
    3.0516    4.8559   14.7259 C   0  0  0  0  0  0  0  0  0  0  0  0
    3.1063    5.2773   12.3123 O   0  0  0  0  0  0  0  0  0  0  0  0
    4.3301    5.0336   11.8873 C   0  0  0  0  0  0  0  0  0  0  0  0
    5.3092    5.0194   12.5950 O   0  0  0  0  0  0  0  0  0  0  0  0
    4.3637    4.8527   10.4007 C   0  0  0  0  0  0  0  0  0  0  0  0
    5.5515    4.0476    9.9237 C   0  0  1  0  0  0  0  0  0  0  0  0
    5.3415    2.5789    9.9506 C   0  0  0  0  0  0  0  0  0  0  0  0
    5.7789    4.4030    8.5294 O   0  0  0  0  0  0  0  0  0  0  0  0
    6.8002    5.1908    8.2544 C   0  0  0  0  0  0  0  0  0  0  0  0
    7.5047    5.6516    9.0814 O   0  0  0  0  0  0  0  0  0  0  0  0
    6.9679    5.3952    6.7908 C   0  0  0  0  0  0  0  0  0  0  0  0
    7.6637    6.6926    6.4312 C   0  0  1  0  0  0  0  0  0  0  0  0
    7.9060    6.8168    4.9426 C   0  0  0  0  0  0  0  0  0  0  0  0
    6.7045    7.7524    6.8043 O   0  0  0  0  0  0  0  0  0  0  0  0
    7.2251    8.9554    7.1755 C   0  0  0  0  0  0  0  0  0  0  0  0
    8.3881    9.1740    7.2524 O   0  0  0  0  0  0  0  0  0  0  0  0
    6.1280    9.9288    7.4082 C   0  0  0  0  0  0  0  0  0  0  0  0
    6.5020   11.0327    8.3736 C   0  0  1  0  0  0  0  0  0  0  0  0
    5.4595   12.1161    8.4717 C   0  0  0  0  0  0  0  0  0  0  0  0
    6.6548   10.3659    9.6660 O   0  0  0  0  0  0  0  0  0  0  0  0
    7.5643   10.8754   10.4968 C   0  0  0  0  0  0  0  0  0  0  0  0
    8.2117   11.8567   10.2622 O   0  0  0  0  0  0  0  0  0  0  0  0
    7.6575   10.0844   11.7719 C   0  0  0  0  0  0  0  0  0  0  0  0
    7.7917    8.5890   11.5719 C   0  0  1  0  0  0  0  0  0  0  0  0
    9.0168    8.1864   10.8353 C   0  0  0  0  0  0  0  0  0  0  0  0
    7.8924    7.9726   12.8835 O   0  0  0  0  0  0  0  0  0  0  0  0
    6.7704    7.8138   13.6009 C   0  0  0  0  0  0  0  0  0  0  0  0
    5.6882    8.1518   13.2182 O   0  0  0  0  0  0  0  0  0  0  0  0
    7.0922    7.1659   14.9163 C   0  0  0  0  0  0  0  0  0  0  0  0
    5.9690    7.2256   15.9068 C   0  0  1  0  0  0  0  0  0  0  0  0
    6.3194    6.5573   17.2069 C   0  0  0  0  0  0  0  0  0  0  0  0
  1  2  1  0
  2  3  2  0
  4  2  1  0
  5  4  1  0
  5  6  1  1
  7  5  1  0
  8  7  1  0
  9  8  2  0
 10  8  1  0
 11 10  1  0
 11 12  1  6
 13 11  1  0
 14 13  1  0
 15 14  2  0
 16 14  1  0
 17 16  1  0
 17 18  1  1
 19 17  1  0
 20 19  1  0
 21 20  2  0
 22 20  1  0
 23 22  1  0
 23 24  1  6
 25 23  1  0
 26 25  1  0
 27 26  2  0
 28 26  1  0
 29 28  1  0
 29 30  1  6
 31 29  1  0
 32 31  1  0
 33 32  2  0
 34 32  1  0
 35 34  1  0
 35 36  1  1
 37 35  1  0
 38 37  1  0
 39 38  2  0
 40 38  1  0
 41 40  1  0
 41 42  1  6
 43 41  1  0
 44 43  1  0
 45 44  2  0
 46 44  1  0
 47  1  1  0
 47 48  1  1
 46 47  1  0
M  END
>  <_TriposChargeType>  (192) 
NO_CHARGES

$$$$
WECKIY
     RDKit          3D

 20 20  0  0  0  0  0  0  0  0999 V2000
   -0.1274    0.0147    2.0976 S   0  0  0  0  0  0  0  0  0  0  0  0
   -5.1125    4.4750    0.7327 S   0  0  0  0  0  0  0  0  0  0  0  0
   -5.4036    4.0187    5.6426 S   0  0  0  0  0  0  0  0  0  0  0  0
   -3.6188   -1.5120    4.6980 S   0  0  0  0  0  0  0  0  0  0  0  0
   -1.7076    0.5090    1.3504 C   0  0  0  0  0  0  0  0  0  0  0  0
   -1.9578    1.9757    1.6465 C   0  0  0  0  0  0  0  0  0  0  0  0
   -3.2620    2.4779    1.0382 C   0  0  0  0  0  0  0  0  0  0  0  0
   -3.5968    3.8819    1.5275 C   0  0  0  0  0  0  0  0  0  0  0  0
   -5.3097    6.1018    1.5140 C   0  0  0  0  0  0  0  0  0  0  0  0
   -5.5095    6.0732    3.0239 C   0  0  0  0  0  0  0  0  0  0  0  0
   -6.7067    5.2684    3.4889 C   0  0  0  0  0  0  0  0  0  0  0  0
   -6.7432    5.0650    5.0029 C   0  0  0  0  0  0  0  0  0  0  0  0
   -6.0485    2.3947    5.1462 C   0  0  0  0  0  0  0  0  0  0  0  0
   -5.1287    1.2640    5.5964 C   0  0  0  0  0  0  0  0  0  0  0  0
   -3.8078    1.2365    4.8407 C   0  0  0  0  0  0  0  0  0  0  0  0
   -2.8951    0.0722    5.2111 C   0  0  0  0  0  0  0  0  0  0  0  0
   -2.2328   -2.6407    5.0286 C   0  0  0  0  0  0  0  0  0  0  0  0
   -0.9919   -2.3975    4.1757 C   0  0  0  0  0  0  0  0  0  0  0  0
   -1.2131   -2.5068    2.6738 C   0  0  0  0  0  0  0  0  0  0  0  0
   -0.1615   -1.7818    1.8425 C   0  0  0  0  0  0  0  0  0  0  0  0
  1  5  1  0
  2  8  1  0
  3 12  1  0
  4 16  1  0
  5  6  1  0
  6  7  1  0
  7  8  1  0
  9  2  1  0
 10  9  1  0
 11 10  1  0
 12 11  1  0
 13  3  1  0
 14 13  1  0
 15 14  1  0
 16 15  1  0
 17  4  1  0
 18 17  1  0
 19 18  1  0
 20  1  1  0
 19 20  1  0
M  END
>  <_TriposChargeType>  (193) 
NO_CHARGES

$$$$
WIFNEF
     RDKit          3D

 40 46  0  0  0  0  0  0  0  0999 V2000
    9.0056    1.1575    7.7032 N   0  0  0  0  0  0  0  0  0  0  0  0
    8.7936    2.0163    8.6982 N   0  0  0  0  0  0  0  0  0  0  0  0
    9.8475    2.7243    9.0267 N   0  0  0  0  0  0  0  0  0  0  0  0
   10.8152    2.3366    8.2161 N   0  0  0  0  0  0  0  0  0  0  0  0
    4.3678    5.0800    5.4050 N   0  0  0  0  0  0  0  0  0  0  0  0
    5.0940    3.9736    5.3668 N   0  0  0  0  0  0  0  0  0  0  0  0
    5.7414    3.7960    4.2318 N   0  0  0  0  0  0  0  0  0  0  0  0
    5.4407    4.8316    3.4727 N   0  0  0  0  0  0  0  0  0  0  0  0
   11.0608    0.7020    6.3729 C   0  0  0  0  0  0  0  0  0  0  0  0
   11.2432    1.2379    5.0886 C   0  0  0  0  0  0  0  0  0  0  0  0
   12.0489    0.5421    4.1901 C   0  0  0  0  0  0  0  0  0  0  0  0
   12.6656   -0.6364    4.5452 C   0  0  0  0  0  0  0  0  0  0  0  0
   12.4933   -1.1607    5.8115 C   0  0  0  0  0  0  0  0  0  0  0  0
   11.6882   -0.4889    6.7138 C   0  0  0  0  0  0  0  0  0  0  0  0
   10.2770    1.3964    7.4174 C   0  0  0  0  0  0  0  0  0  0  0  0
    7.5144    2.1502    9.4013 C   0  0  0  0  0  0  0  0  0  0  0  0
    6.3389    2.1283    8.4437 C   0  0  0  0  0  0  0  0  0  0  0  0
    6.3473    3.2237    7.3823 C   0  0  0  0  0  0  0  0  0  0  0  0
    5.1559    3.0170    6.4697 C   0  0  0  0  0  0  0  0  0  0  0  0
   10.6326    2.5021    4.6532 C   0  0  0  0  0  0  0  0  0  0  0  0
    6.2330    6.9484    1.1515 N   0  0  0  0  0  0  0  0  0  0  0  0
    6.4450    6.0896    0.1564 N   0  0  0  0  0  0  0  0  0  0  0  0
    5.3911    5.3816   -0.1720 N   0  0  0  0  0  0  0  0  0  0  0  0
    4.4233    5.7692    0.6385 N   0  0  0  0  0  0  0  0  0  0  0  0
   10.8707    3.0259    3.4496 N   0  0  0  0  0  0  0  0  0  0  0  0
   10.1445    4.1323    3.4878 N   0  0  0  0  0  0  0  0  0  0  0  0
    9.4971    4.3099    4.6228 N   0  0  0  0  0  0  0  0  0  0  0  0
    9.7979    3.2743    5.3819 N   0  0  0  0  0  0  0  0  0  0  0  0
    4.1777    7.4038    2.4817 C   0  0  0  0  0  0  0  0  0  0  0  0
    3.9953    6.8679    3.7660 C   0  0  0  0  0  0  0  0  0  0  0  0
    3.1896    7.5638    4.6645 C   0  0  0  0  0  0  0  0  0  0  0  0
    2.5730    8.7423    4.3094 C   0  0  0  0  0  0  0  0  0  0  0  0
    2.7453    9.2666    3.0431 C   0  0  0  0  0  0  0  0  0  0  0  0
    3.5504    8.5947    2.1408 C   0  0  0  0  0  0  0  0  0  0  0  0
    4.9616    6.7094    1.4372 C   0  0  0  0  0  0  0  0  0  0  0  0
    7.7242    5.9557   -0.5467 C   0  0  0  0  0  0  0  0  0  0  0  0
    8.8997    5.9776    0.4109 C   0  0  0  0  0  0  0  0  0  0  0  0
    8.8913    4.8821    1.4723 C   0  0  0  0  0  0  0  0  0  0  0  0
   10.0827    5.0889    2.3849 C   0  0  0  0  0  0  0  0  0  0  0  0
    4.6060    5.6037    4.2014 C   0  0  0  0  0  0  0  0  0  0  0  0
  1  2  1  0
  2  3  1  0
  3  4  2  0
  4 15  1  0
  5  6  1  0
  6  7  1  0
  7  8  2  0
  8 40  1  0
  9 10  2  0
 10 11  1  0
 12 11  2  0
 13 12  1  0
 14  9  1  0
 15  1  2  0
 16  2  1  0
 17 16  1  0
 18 17  1  0
 19  6  1  0
 20 10  1  0
 21 22  1  0
 22 23  1  0
 23 24  2  0
 24 35  1  0
 25 20  2  0
 26 25  1  0
 27 26  1  0
 28 20  1  0
 29 30  2  0
 30 31  1  0
 32 31  2  0
 33 32  1  0
 34 29  1  0
 35 21  2  0
 36 22  1  0
 37 36  1  0
 38 37  1  0
 39 26  1  0
 40  5  2  0
  9 15  1  0
 13 14  2  0
 18 19  1  0
 27 28  2  0
 29 35  1  0
 30 40  1  0
 33 34  2  0
 38 39  1  0
M  END
>  <_TriposChargeType>  (194) 
NO_CHARGES

$$$$
WIGLUT
     RDKit          3D

 33 35  0  0  0  0  0  0  0  0999 V2000
   -0.5195   10.4190    2.6545 S   0  0  0  0  0  0  0  0  0  0  0  0
    2.1424    4.1336    1.9704 S   0  0  0  0  0  0  0  0  0  0  0  0
    0.8383   10.0800    2.3603 O   0  0  0  0  0  0  0  0  0  0  0  0
   -1.1665   11.4764    1.9234 O   0  0  0  0  0  0  0  0  0  0  0  0
    2.8681    5.3527    2.1801 O   0  0  0  0  0  0  0  0  0  0  0  0
    2.4137    3.3386    0.8103 O   0  0  0  0  0  0  0  0  0  0  0  0
   -3.5210    6.9197    2.0026 O   0  0  0  0  0  0  0  0  0  0  0  0
   -2.5480    4.2841    2.1558 O   0  0  0  0  0  0  0  0  0  0  0  0
   -1.3948    9.0661    2.4494 N   0  0  0  0  0  0  0  0  0  0  0  0
    0.5592    4.5282    1.9173 N   0  0  0  0  0  0  0  0  0  0  0  0
   -2.8655    9.1797    2.3385 C   0  0  0  0  0  2  0  0  0  0  0  0
   -3.4542    8.1896    1.3951 C   0  0  0  0  0  2  0  0  0  0  0  0
   -4.0023    5.9211    1.1192 C   0  0  0  0  0  2  0  0  0  0  0  0
   -3.8828    4.6036    1.7815 C   0  0  0  0  0  2  0  0  0  0  0  0
   -1.7117    3.8849    1.0853 C   0  0  0  0  0  2  0  0  0  0  0  0
   -0.3853    3.4318    1.6266 C   0  0  0  0  0  2  0  0  0  0  0  0
    0.1019    5.5774    2.8703 C   0  0  0  0  0  2  0  0  0  0  0  0
   -0.2497    6.8702    2.1680 C   0  0  0  0  0  2  0  0  0  0  0  0
   -0.8674    7.8643    3.1236 C   0  0  0  0  0  2  0  0  0  0  0  0
    2.0970    1.7338    3.2924 C   0  0  0  0  0  3  0  0  0  0  0  0
    2.2295    0.9466    4.4282 C   0  0  0  0  0  3  0  0  0  0  0  0
    2.6232    1.4716    5.6284 C   0  0  0  0  0  0  0  0  0  0  0  0
    2.9179    2.8152    5.6901 C   0  0  0  0  0  3  0  0  0  0  0  0
    2.7853    3.6504    4.5962 C   0  0  0  0  0  3  0  0  0  0  0  0
    2.3710    3.1031    3.3794 C   0  0  0  0  0  0  0  0  0  0  0  0
    2.7499    0.5935    6.8572 C   0  0  0  0  0  1  0  0  0  0  0  0
    0.4647   10.5176    5.2271 C   0  0  0  0  0  3  0  0  0  0  0  0
    0.3588   10.7701    6.5535 C   0  0  0  0  0  3  0  0  0  0  0  0
   -0.7921   11.3209    7.1044 C   0  0  0  0  0  0  0  0  0  0  0  0
   -1.8442   11.6259    6.2376 C   0  0  0  0  0  3  0  0  0  0  0  0
   -1.7619   11.3702    4.9016 C   0  0  0  0  0  3  0  0  0  0  0  0
   -0.5982   10.8159    4.3699 C   0  0  0  0  0  0  0  0  0  0  0  0
   -0.9103   11.6032    8.5813 C   0  0  0  0  0  1  0  0  0  0  0  0
  1  3  2  0
  2  5  2  0
  4  1  2  0
  6  2  2  0
  7 12  1  0
  8 14  1  0
  9  1  1  0
 10  2  1  0
 11  9  1  0
 12 11  1  0
 13  7  1  0
 14 13  1  0
 15  8  1  0
 16 10  1  0
 17 10  1  0
 18 17  1  0
 19  9  1  0
 20 21  2  0
 21 22  1  0
 22 23  2  0
 23 24  1  0
 24 25  2  0
 25  2  1  0
 26 22  1  0
 27 28  2  0
 28 29  1  0
 29 30  2  0
 30 31  1  0
 31 32  2  0
 32  1  1  0
 33 29  1  0
 15 16  1  0
 18 19  1  0
 20 25  1  0
 27 32  1  0
M  RAD  8  11   3  12   3  13   3  14   3  15   3  16   3  17   3  18   3
M  RAD  8  19   3  20   2  21   2  23   2  24   2  26   2  27   2  28   2
M  RAD  3  30   2  31   2  33   2
M  END
>  <_TriposChargeType>  (195) 
NO_CHARGES

$$$$
WISCUW01
     RDKit          3D

 19 20  0  0  0  0  0  0  0  0999 V2000
    5.1247    2.6592    2.1346 O   0  0  0  0  0  0  0  0  0  0  0  0
    3.8930    0.2842    2.9766 O   0  0  0  0  0  0  0  0  0  0  0  0
    5.2775   -1.0999    5.0493 O   0  0  0  0  0  0  0  0  0  0  0  0
    5.1140    3.2263    4.8466 N   0  0  0  0  0  0  0  0  0  0  0  0
    6.1962    1.2630    6.4502 N   0  0  0  0  0  0  0  0  0  0  0  0
    5.1609    2.0368    6.9515 C   0  0  0  0  0  0  0  0  0  0  0  0
    4.6656    1.8643    8.2464 C   0  0  0  0  0  0  0  0  0  0  0  0
    3.6996    2.7163    8.7765 C   0  0  0  0  0  0  0  0  0  0  0  0
    3.1987    3.7502    8.0071 C   0  0  0  0  0  0  0  0  0  0  0  0
    3.6475    3.9194    6.6932 C   0  0  0  0  0  0  0  0  0  0  0  0
    4.6095    3.0719    6.1467 C   0  0  0  0  0  0  0  0  0  0  0  0
    4.4570    4.1508    3.9313 C   0  0  0  0  0  0  0  0  0  0  0  0
    5.1089    4.0239    2.5652 C   0  0  0  0  0  0  0  0  0  0  0  0
    3.8765    2.2191    1.6073 C   0  0  0  0  0  0  0  0  0  0  0  0
    3.8553    0.7187    1.6305 C   0  0  0  0  0  0  0  0  0  0  0  0
    3.9480   -1.1394    3.0717 C   0  0  0  0  0  0  0  0  0  0  0  0
    4.0232   -1.5265    4.5176 C   0  0  0  0  0  0  0  0  0  0  0  0
    5.3139   -1.0505    6.4692 C   0  0  0  0  0  0  0  0  0  0  0  0
    6.4268   -0.1044    6.8720 C   0  0  0  0  0  0  0  0  0  0  0  0
  1 13  1  0
  2 15  1  0
  3 17  1  0
  4 11  1  0
  5  6  1  0
  6  7  2  0
  7  8  1  0
  8  9  2  0
  9 10  1  0
 10 11  2  0
 11  6  1  0
 12  4  1  0
 13 12  1  0
 14  1  1  0
 15 14  1  0
 16  2  1  0
 17 16  1  0
 18  3  1  0
 19  5  1  0
 18 19  1  0
M  END
>  <_TriposChargeType>  (196) 
NO_CHARGES

$$$$
WUBGAB
     RDKit          3D

 52 52  0  0  0  0  0  0  0  0999 V2000
   10.2293   13.4132   10.6910 O   0  0  0  0  0  0  0  0  0  0  0  0
    9.5925   13.8515   11.9098 C   0  0  1  0  0  0  0  0  0  0  0  0
    8.7025   15.0139   11.5551 C   0  0  0  0  0  0  0  0  0  0  0  0
    8.7989   12.6436   12.4359 C   0  0  0  0  0  0  0  0  0  0  0  0
    8.4335   11.7421   11.6898 O   0  0  0  0  0  0  0  0  0  0  0  0
    8.5589   12.6952   13.7498 N   0  0  0  0  0  0  0  0  0  0  0  0
    7.8789   11.6415   14.4681 C   0  0  1  0  0  0  0  0  0  0  0  0
    8.8705   10.6624   15.1431 C   0  0  0  0  0  0  0  0  0  0  0  0
    9.8837   11.4001   16.0172 C   0  0  0  0  0  0  0  0  0  0  0  0
    9.5859    9.8083   14.0977 C   0  0  0  0  0  0  0  0  0  0  0  0
    6.9585   12.2887   15.4850 C   0  0  0  0  0  0  0  0  0  0  0  0
    6.8902   13.4619   15.7084 O   0  0  0  0  0  0  0  0  0  0  0  0
    6.2297   11.3440   16.1218 O   0  0  0  0  0  0  0  0  0  0  0  0
    5.4144   11.7789   17.2405 C   0  0  2  0  0  0  0  0  0  0  0  0
    5.8117   10.9754   18.4794 C   0  0  0  0  0  0  0  0  0  0  0  0
    5.6863    9.4763   18.2514 C   0  0  0  0  0  0  0  0  0  0  0  0
    7.2208   11.3521   18.9170 C   0  0  0  0  0  0  0  0  0  0  0  0
    3.9363   11.6807   16.9097 C   0  0  0  0  0  0  0  0  0  0  0  0
    3.1222   11.9022   17.7943 O   0  0  0  0  0  0  0  0  0  0  0  0
    3.6109   11.3992   15.6386 N   0  0  0  0  0  0  0  0  0  0  0  0
    2.2561   11.6269   15.1451 C   0  0  2  0  0  0  0  0  0  0  0  0
    1.4193   10.3441   15.0717 C   0  0  0  0  0  0  0  0  0  0  0  0
    1.9065    9.3351   14.0370 C   0  0  0  0  0  0  0  0  0  0  0  0
   -0.0599   10.6633   14.8769 C   0  0  0  0  0  0  0  0  0  0  0  0
   11.0897   12.3848   10.8483 C   0  0  0  0  0  0  0  0  0  0  0  0
   11.6302   12.1217   11.8808 O   0  0  0  0  0  0  0  0  0  0  0  0
    2.3983   12.3848   13.8297 C   0  0  0  0  0  0  0  0  0  0  0  0
    3.2587   13.4132   13.9870 O   0  0  0  0  0  0  0  0  0  0  0  0
    3.8955   13.8515   12.7682 C   0  0  1  0  0  0  0  0  0  0  0  0
    4.7855   15.0139   13.1229 C   0  0  0  0  0  0  0  0  0  0  0  0
    4.6891   12.6436   12.2421 C   0  0  0  0  0  0  0  0  0  0  0  0
    5.0545   11.7421   12.9882 O   0  0  0  0  0  0  0  0  0  0  0  0
    4.9291   12.6952   10.9282 N   0  0  0  0  0  0  0  0  0  0  0  0
    5.6091   11.6415   10.2099 C   0  0  1  0  0  0  0  0  0  0  0  0
    4.6175   10.6624    9.5349 C   0  0  0  0  0  0  0  0  0  0  0  0
    3.6043   11.4001    8.6608 C   0  0  0  0  0  0  0  0  0  0  0  0
    3.9021    9.8083   10.5803 C   0  0  0  0  0  0  0  0  0  0  0  0
    6.5295   12.2887    9.1930 C   0  0  0  0  0  0  0  0  0  0  0  0
    6.5978   13.4619    8.9696 O   0  0  0  0  0  0  0  0  0  0  0  0
    7.2583   11.3440    8.5562 O   0  0  0  0  0  0  0  0  0  0  0  0
    8.0736   11.7789    7.4375 C   0  0  2  0  0  0  0  0  0  0  0  0
    7.6763   10.9754    6.1986 C   0  0  0  0  0  0  0  0  0  0  0  0
    7.8017    9.4763    6.4266 C   0  0  0  0  0  0  0  0  0  0  0  0
    6.2672   11.3521    5.7610 C   0  0  0  0  0  0  0  0  0  0  0  0
    9.5517   11.6807    7.7683 C   0  0  0  0  0  0  0  0  0  0  0  0
   10.3658   11.9022    6.8837 O   0  0  0  0  0  0  0  0  0  0  0  0
    9.8771   11.3992    9.0394 N   0  0  0  0  0  0  0  0  0  0  0  0
   11.2319   11.6269    9.5329 C   0  0  2  0  0  0  0  0  0  0  0  0
   12.0687   10.3441    9.6063 C   0  0  0  0  0  0  0  0  0  0  0  0
   11.5815    9.3351   10.6410 C   0  0  0  0  0  0  0  0  0  0  0  0
   13.5479   10.6633    9.8011 C   0  0  0  0  0  0  0  0  0  0  0  0
    1.8578   12.1217   12.7972 O   0  0  0  0  0  0  0  0  0  0  0  0
  1  2  1  0
  2  3  1  6
  4  2  1  0
  5  4  2  0
  6  4  1  0
  7  6  1  0
  7  8  1  1
  9  8  1  0
 10  8  1  0
 11  7  1  0
 12 11  2  0
 13 11  1  0
 14 13  1  0
 14 15  1  1
 16 15  1  0
 17 15  1  0
 18 14  1  0
 19 18  2  0
 20 18  1  0
 21 20  1  0
 21 22  1  6
 23 22  1  0
 24 22  1  0
 25  1  1  0
 26 25  2  0
 27 21  1  0
 28 27  1  0
 29 28  1  0
 29 30  1  1
 31 29  1  0
 32 31  2  0
 33 31  1  0
 34 33  1  0
 34 35  1  6
 36 35  1  0
 37 35  1  0
 38 34  1  0
 39 38  2  0
 40 38  1  0
 41 40  1  0
 41 42  1  6
 43 42  1  0
 44 42  1  0
 45 41  1  0
 46 45  2  0
 47 45  1  0
 48 25  1  0
 48 49  1  1
 50 49  1  0
 51 49  1  0
 52 27  2  0
 47 48  1  0
M  END
>  <_TriposChargeType>  (197) 
NO_CHARGES

$$$$
WUMSON
     RDKit          3D

 52 54  0  0  0  0  0  0  0  0999 V2000
    6.2443    3.0130    2.8059 O   0  0  0  0  0  0  0  0  0  0  0  0
    7.7970    8.9136    6.2601 O   0  0  0  0  0  0  0  0  0  0  0  0
   -3.4896   11.1595    3.7679 O   0  0  0  0  0  0  0  0  0  0  0  0
   -5.3823    5.3886    0.3270 O   0  0  0  0  0  0  0  0  0  0  0  0
   -0.3179    4.2415    5.0561 O   0  0  0  0  0  0  0  0  0  0  0  0
   -1.8284    5.5600    3.9608 O   0  0  0  0  0  0  0  0  0  0  0  0
    2.2813    8.9254    2.5995 O   0  0  0  0  0  0  0  0  0  0  0  0
    3.8145    7.4458    3.4018 O   0  0  0  0  0  0  0  0  0  0  0  0
   -0.1905    4.4381    2.8395 N   0  0  0  0  0  0  0  0  0  0  0  0
    1.0446    3.6441    2.8805 C   0  0  0  0  0  0  0  0  0  0  0  0
    2.2735    4.4892    3.2425 C   0  0  0  0  0  0  0  0  0  0  0  0
    3.5774    3.8232    2.8438 C   0  0  0  0  0  0  0  0  0  0  0  0
    4.7225    4.6263    3.2596 N   0  0  0  0  0  0  0  0  0  0  0  0
    5.9722    4.1388    3.2133 C   0  0  0  0  0  0  0  0  0  0  0  0
    7.0522    5.0350    3.7633 C   0  0  0  0  0  0  0  0  0  0  0  0
    6.6627    6.2032    4.2817 N   0  0  0  0  0  0  0  0  0  0  0  0
    8.3786    4.6028    3.7873 C   0  0  0  0  0  0  0  0  0  0  0  0
    9.3214    5.4044    4.4075 C   0  0  0  0  0  0  0  0  0  0  0  0
    8.9245    6.6045    4.9722 C   0  0  0  0  0  0  0  0  0  0  0  0
    7.5861    6.9724    4.8762 C   0  0  0  0  0  0  0  0  0  0  0  0
    7.0870    8.2399    5.5124 C   0  0  0  0  0  0  0  0  0  0  0  0
    5.8143    8.5230    5.2015 N   0  0  0  0  0  0  0  0  0  0  0  0
    5.0194    9.5589    5.8379 C   0  0  0  0  0  0  0  0  0  0  0  0
    3.9231    8.9759    6.7216 C   0  0  0  0  0  0  0  0  0  0  0  0
    2.9919    8.0049    5.9975 C   0  0  0  0  0  0  0  0  0  0  0  0
    2.4115    8.5795    4.7880 N   0  0  0  0  0  0  0  0  0  0  0  0
    1.2751    9.5022    4.9355 C   0  0  0  0  0  0  0  0  0  0  0  0
   -0.0400    8.8248    4.5810 C   0  0  0  0  0  0  0  0  0  0  0  0
   -1.1737    9.8164    4.5674 C   0  0  0  0  0  0  0  0  0  0  0  0
   -2.3744    9.2066    4.0033 N   0  0  0  0  0  0  0  0  0  0  0  0
   -3.4098    9.9497    3.5930 C   0  0  0  0  0  0  0  0  0  0  0  0
   -4.4869    9.1919    2.8698 C   0  0  0  0  0  0  0  0  0  0  0  0
   -4.1695    7.9751    2.4187 N   0  0  0  0  0  0  0  0  0  0  0  0
   -5.7351    9.7754    2.6613 C   0  0  0  0  0  0  0  0  0  0  0  0
   -6.6888    9.0531    1.9656 C   0  0  0  0  0  0  0  0  0  0  0  0
   -6.3668    7.8008    1.4752 C   0  0  0  0  0  0  0  0  0  0  0  0
   -5.0898    7.3002    1.7147 C   0  0  0  0  0  0  0  0  0  0  0  0
   -4.6693    5.9694    1.1445 C   0  0  0  0  0  0  0  0  0  0  0  0
   -3.4897    5.5282    1.5929 N   0  0  0  0  0  0  0  0  0  0  0  0
   -2.9108    4.2362    1.2737 C   0  0  0  0  0  0  0  0  0  0  0  0
   -1.5024    4.3644    0.6960 C   0  0  0  0  0  0  0  0  0  0  0  0
   -0.5052    5.1110    1.5730 C   0  0  0  0  0  0  0  0  0  0  0  0
   -0.8622    4.8061    3.9605 C   0  0  0  0  0  0  0  0  0  0  0  0
   -1.0095    4.2486    6.3567 C   0  0  0  0  0  0  0  0  0  0  0  0
   -2.2277    3.3580    6.2670 C   0  0  0  0  0  0  0  0  0  0  0  0
   -1.3540    5.6490    6.8049 C   0  0  0  0  0  0  0  0  0  0  0  0
    0.0283    3.6304    7.2727 C   0  0  0  0  0  0  0  0  0  0  0  0
    2.9043    8.2496    3.5794 C   0  0  0  0  0  0  0  0  0  0  0  0
    2.7211    8.8434    1.2023 C   0  0  0  0  0  0  0  0  0  0  0  0
    4.1891    9.1663    1.0834 C   0  0  0  0  0  0  0  0  0  0  0  0
    2.3898    7.4795    0.6552 C   0  0  0  0  0  0  0  0  0  0  0  0
    1.8772    9.8959    0.5176 C   0  0  0  0  0  0  0  0  0  0  0  0
  1 14  2  0
  2 21  2  0
  3 31  2  0
  4 38  2  0
  5 43  1  0
  6 43  2  0
  7 48  1  0
  8 48  2  0
  9 10  1  0
 11 10  1  0
 12 11  1  0
 13 12  1  0
 14 13  1  0
 15 14  1  0
 16 15  1  0
 17 15  2  0
 18 17  1  0
 19 18  2  0
 20 16  2  0
 21 20  1  0
 22 21  1  0
 23 22  1  0
 24 23  1  0
 25 24  1  0
 26 25  1  0
 27 26  1  0
 28 27  1  0
 29 28  1  0
 30 29  1  0
 31 30  1  0
 32 31  1  0
 33 32  1  0
 34 32  2  0
 35 34  1  0
 36 35  2  0
 37 33  2  0
 38 37  1  0
 39 38  1  0
 40 39  1  0
 41 40  1  0
 42  9  1  0
 43  9  1  0
 44  5  1  0
 45 44  1  0
 46 44  1  0
 47 44  1  0
 48 26  1  0
 49  7  1  0
 50 49  1  0
 51 49  1  0
 52 49  1  0
 19 20  1  0
 36 37  1  0
 41 42  1  0
M  END
>  <_TriposChargeType>  (198) 
NO_CHARGES

$$$$
WURVEL
     RDKit          3D

 36 39  0  0  0  0  0  0  0  0999 V2000
    1.1283    7.0203    5.7273 C   0  0  0  0  0  0  0  0  0  0  0  0
    0.2918    6.4049    6.6411 C   0  0  0  0  0  0  0  0  0  0  0  0
   -1.0198    6.1105    6.3530 C   0  0  0  0  0  0  0  0  0  0  0  0
   -1.5313    6.4377    5.1200 C   0  0  0  0  0  0  0  0  0  0  0  0
   -0.7414    7.1151    4.2178 C   0  0  0  0  0  0  0  0  0  0  0  0
    0.5695    7.3913    4.5166 C   0  0  0  0  0  0  0  0  0  0  0  0
    1.6195   -0.9637    3.4389 C   0  0  0  0  0  0  0  0  0  0  0  0
    0.5003   -1.5742    3.9782 C   0  0  0  0  0  0  0  0  0  0  0  0
   -0.7696   -1.2727    3.5320 C   0  0  0  0  0  0  0  0  0  0  0  0
   -0.9415   -0.3431    2.5260 C   0  0  0  0  0  0  0  0  0  0  0  0
    0.1615    0.2713    1.9818 C   0  0  0  0  0  0  0  0  0  0  0  0
    1.4143   -0.0448    2.4426 C   0  0  0  0  0  0  0  0  0  0  0  0
   -2.4235    0.8985    1.1195 C   0  0  0  0  0  0  0  0  0  0  0  0
   -3.8649    1.1569    0.9536 C   0  0  0  0  0  0  0  0  0  0  0  0
   -5.3884    2.6333    1.9964 C   0  0  0  0  0  0  0  0  0  0  0  0
   -5.6615    3.3032    3.2827 C   0  0  0  0  0  0  0  0  0  0  0  0
   -4.7904    4.8135    4.8455 C   0  0  0  0  0  0  0  0  0  0  0  0
   -3.5239    5.2000    5.5187 C   0  0  0  0  0  0  0  0  0  0  0  0
    2.5831    7.2054    6.0212 C   0  0  0  0  0  0  0  0  0  0  0  0
    3.5125    5.2105    7.0805 C   0  0  0  0  0  0  0  0  0  0  0  0
    3.9775    0.8610    4.6204 C   0  0  0  0  0  0  0  0  0  0  0  0
    3.0027   -1.2721    3.9229 C   0  0  0  0  0  0  0  0  0  0  0  0
    3.8175    3.0365    5.8033 C   0  0  0  0  0  0  0  0  0  0  0  0
    5.0544    1.3111    6.8642 C   0  0  0  0  0  0  0  0  0  0  0  0
    4.8121    3.2854    7.9313 C   0  0  0  0  0  0  0  0  0  0  0  0
    4.0625    3.8361    6.9020 C   0  0  0  0  0  0  0  0  0  0  0  0
    4.2935    1.7415    5.7884 C   0  0  0  0  0  0  0  0  0  0  0  0
    3.4838   -0.3371    4.9337 N   0  0  0  0  0  0  0  0  0  0  0  0
    3.2844    5.9297    5.9928 N   0  0  0  0  0  0  0  0  0  0  0  0
    5.3331    2.0689    7.9293 N   0  0  0  0  0  0  0  0  0  0  0  0
   -2.2371   -0.0982    2.1346 O   0  0  0  0  0  0  0  0  0  0  0  0
   -4.3463    1.7237    2.1457 O   0  0  0  0  0  0  0  0  0  0  0  0
   -4.5334    4.0345    3.6969 O   0  0  0  0  0  0  0  0  0  0  0  0
   -2.8162    6.1424    4.7184 O   0  0  0  0  0  0  0  0  0  0  0  0
    3.2933    5.6464    8.2156 O   0  0  0  0  0  0  0  0  0  0  0  0
    4.1472    1.2455    3.4716 O   0  0  0  0  0  0  0  0  0  0  0  0
  1  2  2  0
  3  2  1  0
  4  3  2  0
  5  4  1  0
  6  1  1  0
  7  8  2  0
  9  8  1  0
 10  9  2  0
 11 10  1  0
 12  7  1  0
 14 13  1  0
 16 15  1  0
 18 17  1  0
 19  1  1  0
 20 26  1  0
 21 27  1  0
 22  7  1  0
 26 23  2  0
 27 23  1  0
 28 21  1  0
 29 19  1  0
 30 24  1  0
 31 10  1  0
 32 14  1  0
 33 16  1  0
 34  4  1  0
 35 20  2  0
 36 21  2  0
  5  6  2  0
 11 12  2  0
 13 31  1  0
 15 32  1  0
 17 33  1  0
 18 34  1  0
 20 29  1  0
 22 28  1  0
 24 27  2  0
 25 26  1  0
 25 30  2  0
M  END
>  <_TriposChargeType>  (199) 
NO_CHARGES

$$$$
XETJUC
     RDKit          3D

 24 26  0  0  0  0  0  0  0  0999 V2000
    6.4140   12.4436    0.8244 O   0  0  0  0  0  0  0  0  0  0  0  0
    8.0622    7.7669    2.5498 O   0  0  0  0  0  0  0  0  0  0  0  0
   10.3220    8.0231    0.0742 O   0  0  0  0  0  0  0  0  0  0  0  0
    8.6174    9.4928   -0.3293 N   0  0  0  0  0  0  0  0  0  0  0  0
    7.2709   10.6733    1.9819 N   0  0  0  0  0  0  0  0  0  0  0  0
    6.8978    7.5059    0.6106 N   0  0  0  0  0  0  0  0  0  0  0  0
    9.2995   10.7351   -0.2473 C   0  0  0  0  0  0  0  0  0  0  0  0
   10.5246   10.9297   -0.8784 C   0  0  0  0  0  0  0  0  0  0  0  0
   11.1284   12.1826   -0.8716 C   0  0  0  0  0  0  0  0  0  0  0  0
   10.4961   13.2623   -0.2717 C   0  0  0  0  0  0  0  0  0  0  0  0
    9.2625   13.0859    0.3423 C   0  0  0  0  0  0  0  0  0  0  0  0
    8.6722   11.8201    0.3881 C   0  0  0  0  0  0  0  0  0  0  0  0
    7.3484   11.6816    1.0820 C   0  0  0  0  0  0  0  0  0  0  0  0
    6.0482   10.1313    2.4763 C   0  0  0  0  0  0  0  0  0  0  0  0
    5.0244   10.9332    2.9563 C   0  0  0  0  0  0  0  0  0  0  0  0
    3.8308   10.3539    3.3710 C   0  0  0  0  0  0  0  0  0  0  0  0
    3.6594    8.9777    3.3177 C   0  0  0  0  0  0  0  0  0  0  0  0
    4.6904    8.1682    2.8459 C   0  0  0  0  0  0  0  0  0  0  0  0
    5.8844    8.7344    2.4247 C   0  0  0  0  0  0  0  0  0  0  0  0
    7.0445    7.9316    1.8874 C   0  0  0  0  0  0  0  0  0  0  0  0
    8.0701    7.1161   -0.2066 C   0  0  0  0  0  0  0  0  0  0  0  0
    9.1420    8.2452   -0.1225 C   0  0  0  0  0  0  0  0  0  0  0  0
    8.6595    5.7927    0.2677 C   0  0  0  0  0  0  0  0  0  0  0  0
    7.5844    6.9751   -1.6502 C   0  0  0  0  0  0  0  0  0  0  0  0
  1 13  2  0
  2 20  2  0
  3 22  2  0
  4  7  1  0
  5 13  1  0
  6 20  1  0
  7  8  2  0
  8  9  1  0
  9 10  2  0
 10 11  1  0
 11 12  2  0
 12  7  1  0
 13 12  1  0
 14  5  1  0
 15 14  2  0
 16 15  1  0
 17 16  2  0
 18 17  1  0
 19 14  1  0
 20 19  1  0
 21  6  1  0
 22  4  1  0
 23 21  1  0
 24 21  1  0
 18 19  2  0
 21 22  1  0
M  END
>  <_TriposChargeType>  (200) 
NO_CHARGES

$$$$
YACWIK
     RDKit          3D

 76 82  0  0  0  0  0  0  0  0999 V2000
    5.3822   10.8837    5.1384 S   0  0  0  0  0  0  0  0  0  0  0  0
    0.8017   10.5026   -0.0954 S   0  0  0  0  0  0  0  0  0  0  0  0
    8.5403   11.9277    5.1725 O   0  0  0  0  0  0  0  0  0  0  0  0
   11.5024   10.3281    6.3332 N   0  0  0  0  0  0  0  0  0  0  0  0
   13.6667    8.6630    8.6489 O   0  0  0  0  0  0  0  0  0  0  0  0
    2.8207   14.4541    3.6093 O   0  0  0  0  0  0  0  0  0  0  0  0
   11.8759    9.5357    7.3470 C   0  0  0  0  0  0  0  0  0  0  0  0
    2.0246   12.3437    3.3268 N   0  0  0  0  0  0  0  0  0  0  0  0
    9.8878   11.5160    5.0491 C   0  0  0  0  0  0  0  0  0  0  0  0
    1.4411   13.9242    1.8852 O   0  0  0  0  0  0  0  0  0  0  0  0
    8.0603   12.8571    4.2944 C   0  0  0  0  0  0  0  0  0  0  0  0
   10.1986   10.5820    6.1787 C   0  0  0  0  0  0  0  0  0  0  0  0
   14.9539    8.2208    8.8375 C   0  0  0  0  0  0  0  0  0  0  0  0
   15.2228    7.6802   10.0984 C   0  0  0  0  0  0  0  0  0  0  0  0
   15.9413    8.2721    7.8678 C   0  0  0  0  0  0  0  0  0  0  0  0
    6.7241   13.2190    4.5050 C   0  0  0  0  0  0  0  0  0  0  0  0
    6.1678   14.1885    3.6858 C   0  0  0  0  0  0  0  0  0  0  0  0
    8.7961   13.4399    3.2786 C   0  0  0  0  0  0  0  0  0  0  0  0
    9.6219    9.2057    8.0221 C   0  0  0  0  0  0  0  0  0  0  0  0
    9.2226   10.0287    6.9906 C   0  0  0  0  0  0  0  0  0  0  0  0
   10.9694    8.9671    8.2171 C   0  0  0  0  0  0  0  0  0  0  0  0
    5.9329   12.5546    5.5884 C   0  0  0  0  0  0  0  0  0  0  0  0
    4.2025   11.2924    3.8423 C   0  0  0  0  0  0  0  0  0  0  0  0
   17.1928    7.7510    8.1287 C   0  0  0  0  0  0  0  0  0  0  0  0
    2.1587   13.6492    2.9905 C   0  0  0  0  0  0  0  0  0  0  0  0
    2.8769   11.8199    4.3872 C   0  0  0  0  0  0  0  0  0  0  0  0
   13.3616    9.3055    7.4230 C   0  0  0  0  0  0  0  0  0  0  0  0
    6.9016   14.7787    2.6786 C   0  0  0  0  0  0  0  0  0  0  0  0
    1.9234   11.0047    1.2188 C   0  0  0  0  0  0  0  0  0  0  0  0
   16.4954    7.1843   10.3304 C   0  0  0  0  0  0  0  0  0  0  0  0
    1.2382   11.4209    2.5146 C   0  0  0  0  0  0  0  0  0  0  0  0
    8.2028   14.3979    2.4741 C   0  0  0  0  0  0  0  0  0  0  0  0
   17.4717    7.1972    9.3558 C   0  0  0  0  0  0  0  0  0  0  0  0
    0.2432    8.8750    0.4499 C   0  0  0  0  0  0  0  0  0  0  0  0
    1.4356   15.2649    1.2945 C   0  0  0  0  0  0  0  0  0  0  0  0
    0.7339   16.2150    2.2340 C   0  0  0  0  0  0  0  0  0  0  0  0
    0.6043   15.0283    0.0395 C   0  0  0  0  0  0  0  0  0  0  0  0
    2.8392   15.7201    0.9478 C   0  0  0  0  0  0  0  0  0  0  0  0
    9.0416    5.6505    6.4909 S   0  0  0  0  0  0  0  0  0  0  0  0
   13.6221    6.0316   11.7247 S   0  0  0  0  0  0  0  0  0  0  0  0
    5.8834    4.6065    6.4569 O   0  0  0  0  0  0  0  0  0  0  0  0
    2.9213    6.2061    5.2961 N   0  0  0  0  0  0  0  0  0  0  0  0
    0.7571    7.8711    2.9805 O   0  0  0  0  0  0  0  0  0  0  0  0
   11.6030    2.0801    8.0201 O   0  0  0  0  0  0  0  0  0  0  0  0
    2.5478    6.9985    4.2824 C   0  0  0  0  0  0  0  0  0  0  0  0
   12.3992    4.1905    8.3026 N   0  0  0  0  0  0  0  0  0  0  0  0
    4.5359    5.0182    6.5802 C   0  0  0  0  0  0  0  0  0  0  0  0
   12.9827    2.6100    9.7441 O   0  0  0  0  0  0  0  0  0  0  0  0
    6.3635    3.6771    7.3350 C   0  0  0  0  0  0  0  0  0  0  0  0
    4.2252    5.9522    5.4507 C   0  0  0  0  0  0  0  0  0  0  0  0
   -0.5301    8.3134    2.7919 C   0  0  0  0  0  0  0  0  0  0  0  0
   -0.7990    8.8540    1.5310 C   0  0  0  0  0  0  0  0  0  0  0  0
   -1.5175    8.2621    3.7615 C   0  0  0  0  0  0  0  0  0  0  0  0
    7.6996    3.3152    7.1244 C   0  0  0  0  0  0  0  0  0  0  0  0
    8.2559    2.3457    7.9436 C   0  0  0  0  0  0  0  0  0  0  0  0
    5.6277    3.0943    8.3508 C   0  0  0  0  0  0  0  0  0  0  0  0
    4.8019    7.3285    3.6073 C   0  0  0  0  0  0  0  0  0  0  0  0
    5.2012    6.5055    4.6387 C   0  0  0  0  0  0  0  0  0  0  0  0
    3.4544    7.5671    3.4123 C   0  0  0  0  0  0  0  0  0  0  0  0
    8.4908    3.9796    6.0410 C   0  0  0  0  0  0  0  0  0  0  0  0
   10.2212    5.2418    7.7870 C   0  0  0  0  0  0  0  0  0  0  0  0
   -2.7691    8.7832    3.5007 C   0  0  0  0  0  0  0  0  0  0  0  0
   12.2651    2.8850    8.6389 C   0  0  0  0  0  0  0  0  0  0  0  0
   11.5468    4.7143    7.2422 C   0  0  0  0  0  0  0  0  0  0  0  0
    1.0621    7.2287    4.2063 C   0  0  0  0  0  0  0  0  0  0  0  0
    7.5222    1.7555    8.9508 C   0  0  0  0  0  0  0  0  0  0  0  0
   12.5004    5.5295   10.4106 C   0  0  0  0  0  0  0  0  0  0  0  0
   -2.0716    9.3499    1.2990 C   0  0  0  0  0  0  0  0  0  0  0  0
   13.1856    5.1133    9.1147 C   0  0  0  0  0  0  0  0  0  0  0  0
    6.2210    2.1363    9.1552 C   0  0  0  0  0  0  0  0  0  0  0  0
   -3.0480    9.3370    2.2735 C   0  0  0  0  0  0  0  0  0  0  0  0
   14.1806    7.6592   11.1794 C   0  0  0  0  0  0  0  0  0  0  0  0
   12.9882    1.2693   10.3349 C   0  0  0  0  0  0  0  0  0  0  0  0
   13.6899    0.3192    9.3954 C   0  0  0  0  0  0  0  0  0  0  0  0
   13.8195    1.5059   11.5898 C   0  0  0  0  0  0  0  0  0  0  0  0
   11.5846    0.8140   10.6816 C   0  0  0  0  0  0  0  0  0  0  0  0
  1 22  1  0
  2 29  1  0
  3  9  1  0
  4  7  2  0
  5 13  1  0
  6 25  2  0
  7 21  1  0
  8 25  1  0
 10 25  1  0
 11  3  1  0
 12  4  1  0
 13 14  2  0
 14 30  1  0
 15 13  1  0
 16 11  2  0
 17 16  1  0
 18 11  1  0
 20 12  2  0
 21 19  2  0
 22 16  1  0
 23  1  1  0
 24 15  2  0
 26  8  1  0
 27  5  1  0
 28 17  2  0
 31  8  1  0
 32 18  2  0
 33 24  1  0
 34  2  1  0
 35 10  1  0
 36 35  1  0
 37 35  1  0
 38 35  1  0
 39 60  1  0
 40 67  1  0
 41 47  1  0
 42 45  2  0
 43 51  1  0
 44 63  2  0
 45 59  1  0
 46 63  1  0
 48 63  1  0
 49 41  1  0
 50 42  1  0
 51 52  2  0
 52 34  1  0
 53 51  1  0
 54 49  2  0
 55 54  1  0
 56 49  1  0
 58 50  2  0
 59 57  2  0
 60 54  1  0
 61 39  1  0
 62 53  2  0
 64 46  1  0
 65 43  1  0
 66 55  2  0
 68 52  1  0
 69 46  1  0
 70 56  2  0
 71 62  1  0
 72 14  1  0
 73 48  1  0
 74 73  1  0
 75 73  1  0
 76 73  1  0
  7 27  1  0
  9 12  1  0
 19 20  1  0
 23 26  1  0
 28 32  1  0
 29 31  1  0
 30 33  2  0
 40 72  1  0
 45 65  1  0
 47 50  1  0
 57 58  1  0
 61 64  1  0
 66 70  1  0
 67 69  1  0
 68 71  2  0
M  END
>  <_TriposChargeType>  (201) 
NO_CHARGES

$$$$
YARFON
     RDKit          3D

 16 16  0  0  0  0  0  0  0  0999 V2000
    1.0189    0.6065    1.2979 O   0  0  0  0  0  0  0  0  0  0  0  0
    2.9197   -0.5072    1.5940 O   0  0  0  0  0  0  0  0  0  0  0  0
    2.9621    1.5315    0.3461 C   0  0  0  0  0  0  0  0  0  0  0  0
    2.3344    0.4298    1.1361 C   0  0  0  0  0  0  0  0  0  0  0  0
    0.3331   -0.4465    2.0300 C   0  0  0  0  0  0  0  0  0  0  0  0
   -1.0630   -0.0105    2.2602 C   0  0  0  0  0  0  0  0  0  0  0  0
   -2.1515   -0.6248    1.8327 C   0  0  0  0  0  0  0  0  0  0  0  0
    2.2416    1.8348   -0.9668 C   0  0  0  0  0  0  0  0  0  0  0  0
   -1.0189   -0.6065   -1.2979 O   0  0  0  0  0  0  0  0  0  0  0  0
   -2.9197    0.5072   -1.5940 O   0  0  0  0  0  0  0  0  0  0  0  0
   -2.9621   -1.5315   -0.3461 C   0  0  0  0  0  0  0  0  0  0  0  0
   -2.3344   -0.4298   -1.1361 C   0  0  0  0  0  0  0  0  0  0  0  0
   -0.3331    0.4465   -2.0300 C   0  0  0  0  0  0  0  0  0  0  0  0
    1.0630    0.0105   -2.2602 C   0  0  0  0  0  0  0  0  0  0  0  0
    2.1515    0.6248   -1.8327 C   0  0  0  0  0  0  0  0  0  0  0  0
   -2.2416   -1.8348    0.9668 C   0  0  0  0  0  0  0  0  0  0  0  0
  1  4  1  0
  2  4  2  0
  4  3  1  0
  5  1  1  0
  6  5  1  0
  7  6  2  0
  8  3  1  0
  9 12  1  0
 10 12  2  0
 12 11  1  0
 13  9  1  0
 14 13  1  0
 15  8  1  0
 16  7  1  0
 11 16  1  0
 14 15  2  0
M  END
>  <_TriposChargeType>  (202) 
NO_CHARGES

$$$$
YAZKOZ
     RDKit          3D

 14 14  0  0  0  0  0  0  0  0999 V2000
    3.5788    1.4289    5.6565 O   0  0  0  0  0  0  0  0  0  0  0  0
    7.6767   -1.8308    3.3376 O   0  0  0  0  0  0  0  0  0  0  0  0
    5.6162   -1.3549    2.5840 N   0  0  0  0  0  0  0  0  0  0  0  0
    5.6224    1.9929    4.9319 N   0  0  0  0  0  0  0  0  0  0  0  0
    5.3216    0.4823    6.8935 C   0  0  0  0  0  0  0  0  0  0  0  0
    5.3067    2.6282    3.8134 C   0  0  0  0  0  0  0  0  0  0  0  0
    4.8122    1.3705    5.7742 C   0  0  0  0  0  0  0  0  0  0  0  0
    6.4575   -1.9164    3.4723 C   0  0  0  0  0  0  0  0  0  0  0  0
    5.1352   -1.6350    5.5772 C   0  0  0  0  0  0  0  0  0  0  0  0
    6.2540    0.9621    2.1595 C   0  0  0  0  0  0  0  0  0  0  0  0
    6.1232   -0.7015    6.2465 C   0  0  0  0  0  0  0  0  0  0  0  0
    4.9645    1.6169    2.6053 C   0  0  0  0  0  0  0  0  0  0  0  0
    5.9231   -0.4823    1.6317 C   0  0  0  0  0  0  0  0  0  0  0  0
    5.9380   -2.6282    4.7119 C   0  0  0  0  0  0  0  0  0  0  0  0
  1  7  2  0
  2  8  2  0
  3  8  1  0
  4  6  1  0
  5  7  1  0
  6 12  1  0
  7  4  1  0
  8 14  1  0
  9 11  1  0
 10 12  1  0
 11  5  1  0
 13  3  1  0
 14  9  1  0
 10 13  1  0
M  END
>  <_TriposChargeType>  (203) 
NO_CHARGES

$$$$
YITZIK
     RDKit          3D

 31 34  0  0  0  0  0  0  0  0999 V2000
   12.6308   11.4574    2.7608 C   0  0  0  0  0  0  0  0  0  0  0  0
   12.3419   12.1655    1.6059 C   0  0  0  0  0  0  0  0  0  0  0  0
   11.6011   13.3382    1.6564 C   0  0  0  0  0  0  0  0  0  0  0  0
   11.1479   13.8057    2.8673 C   0  0  0  0  0  0  0  0  0  0  0  0
   11.4321   13.1299    4.0388 C   0  0  0  0  0  0  0  0  0  0  0  0
   12.1847   11.9625    3.9880 C   0  0  0  0  0  0  0  0  0  0  0  0
   11.5098    8.6527    1.8588 C   0  0  0  0  0  0  0  0  0  0  0  0
   11.0259    9.1870    0.6737 C   0  0  0  0  0  0  0  0  0  0  0  0
    9.7366    8.9123    0.2500 C   0  0  0  0  0  0  0  0  0  0  0  0
    8.9315    8.0912    0.9969 C   0  0  0  0  0  0  0  0  0  0  0  0
    9.3923    7.5303    2.1783 C   0  0  0  0  0  0  0  0  0  0  0  0
   10.6775    7.8111    2.6043 C   0  0  0  0  0  0  0  0  0  0  0  0
   12.8894    8.8840    2.3413 C   0  0  2  0  0  0  0  0  0  0  0  0
   13.4256   10.1963    2.7573 C   0  0  1  0  0  0  0  0  0  0  0  0
   13.7721    9.6360    1.4833 O   0  0  0  0  0  0  0  0  0  0  0  0
   12.5251   11.2182    5.0842 O   0  0  0  0  0  0  0  0  0  0  0  0
   12.2739   11.7970    6.3718 C   0  0  0  0  0  0  0  0  0  0  0  0
   12.9393   10.9360    7.4018 C   0  0  0  0  0  0  0  0  0  0  0  0
   14.3460   11.0315    7.3339 O   0  0  0  0  0  0  0  0  0  0  0  0
   15.0322    9.9253    6.7925 C   0  0  0  0  0  0  0  0  0  0  0  0
   15.4544    8.9366    7.8287 C   0  0  0  0  0  0  0  0  0  0  0  0
   14.3354    8.1654    8.2196 O   0  0  0  0  0  0  0  0  0  0  0  0
   14.6633    7.1519    9.1434 C   0  0  0  0  0  0  0  0  0  0  0  0
   13.4448    6.3439    9.4275 C   0  0  0  0  0  0  0  0  0  0  0  0
   13.0394    5.6834    8.2410 O   0  0  0  0  0  0  0  0  0  0  0  0
   11.9796    4.7714    8.4562 C   0  0  0  0  0  0  0  0  0  0  0  0
   11.6396    4.0820    7.1736 C   0  0  0  0  0  0  0  0  0  0  0  0
   10.8228    4.8448    6.2901 O   0  0  0  0  0  0  0  0  0  0  0  0
   11.5249    5.7919    5.4987 C   0  0  0  0  0  0  0  0  0  0  0  0
   10.5598    6.2696    4.4521 C   0  0  0  0  0  0  0  0  0  0  0  0
   11.2275    7.3275    3.7622 O   0  0  0  0  0  0  0  0  0  0  0  0
  1  2  2  0
  2  3  1  0
  3  4  2  0
  4  5  1  0
  5  6  2  0
  6  1  1  0
  7  8  2  0
  8  9  1  0
  9 10  2  0
 10 11  1  0
 11 12  2  0
 12  7  1  0
 13  7  1  0
 14  1  1  0
 13 15  1  6
 16  6  1  0
 17 16  1  0
 18 17  1  0
 19 18  1  0
 20 19  1  0
 21 20  1  0
 22 21  1  0
 23 22  1  0
 24 23  1  0
 25 24  1  0
 26 25  1  0
 27 26  1  0
 28 27  1  0
 29 28  1  0
 30 29  1  0
 31 12  1  0
 13 14  1  0
 14 15  1  6
 30 31  1  0
M  END
>  <_TriposChargeType>  (204) 
NO_CHARGES

$$$$
YIWHOB01
     RDKit          3D

 36 39  0  0  0  0  0  0  0  0999 V2000
    5.8276    5.8908    5.2955 C   0  0  0  0  0  0  0  0  0  0  0  0
    7.0253    5.6126    4.6421 C   0  0  0  0  0  0  0  0  0  0  0  0
    6.9982    5.1845    3.3233 C   0  0  0  0  0  0  0  0  0  0  0  0
    5.8034    5.0427    2.6374 C   0  0  0  0  0  0  0  0  0  0  0  0
    4.6103    5.3416    3.2870 C   0  0  0  0  0  0  0  0  0  0  0  0
    4.6236    5.7567    4.6160 C   0  0  0  0  0  0  0  0  0  0  0  0
    5.7407    6.2819    6.6127 O   0  0  0  0  0  0  0  0  0  0  0  0
    6.9158    6.0907    7.4129 C   0  0  0  0  0  0  0  0  0  0  0  0
    6.5250    6.2572    8.8476 C   0  0  0  0  0  0  0  0  0  0  0  0
    5.5701    5.2503    9.1692 O   0  0  0  0  0  0  0  0  0  0  0  0
    5.3950    5.0286   10.5670 C   0  0  0  0  0  0  0  0  0  0  0  0
    4.1277    4.2389   10.7388 C   0  0  0  0  0  0  0  0  0  0  0  0
    4.2280    2.9884   10.0327 O   0  0  0  0  0  0  0  0  0  0  0  0
    3.1066    2.7202    9.1929 C   0  0  0  0  0  0  0  0  0  0  0  0
    3.0401    3.6175    7.9645 C   0  0  0  0  0  0  0  0  0  0  0  0
    3.8816    3.1169    6.8504 N   0  0  0  0  0  0  0  0  0  0  0  0
    5.2133    2.9918    7.0171 C   0  0  0  0  0  0  0  0  0  0  0  0
    6.0031    2.5248    6.0023 C   0  0  0  0  0  0  0  0  0  0  0  0
    5.4369    2.1690    4.7826 C   0  0  0  0  0  0  0  0  0  0  0  0
    4.0601    2.3215    4.6314 C   0  0  0  0  0  0  0  0  0  0  0  0
    3.3065    2.7887    5.6771 C   0  0  0  0  0  0  0  0  0  0  0  0
    5.8945    4.5936    1.3444 O   0  0  0  0  0  0  0  0  0  0  0  0
    4.7324    4.7297    0.5224 C   0  0  0  0  0  0  0  0  0  0  0  0
    5.1486    4.5022   -0.9027 C   0  0  0  0  0  0  0  0  0  0  0  0
    5.2661    3.1103   -1.1757 O   0  0  0  0  0  0  0  0  0  0  0  0
    6.1096    2.8479   -2.2929 C   0  0  0  0  0  0  0  0  0  0  0  0
    7.5181    2.5545   -1.8663 C   0  0  0  0  0  0  0  0  0  0  0  0
    7.5118    1.3499   -1.0840 O   0  0  0  0  0  0  0  0  0  0  0  0
    8.7885    1.0861   -0.5273 C   0  0  0  0  0  0  0  0  0  0  0  0
    8.6329    0.0281    0.5415 C   0  0  0  0  0  0  0  0  0  0  0  0
    7.8068    0.5482    1.6616 N   0  0  0  0  0  0  0  0  0  0  0  0
    8.3857    1.3178    2.6116 C   0  0  0  0  0  0  0  0  0  0  0  0
    7.6377    1.8611    3.6193 C   0  0  0  0  0  0  0  0  0  0  0  0
    6.2666    1.6215    3.6798 C   0  0  0  0  0  0  0  0  0  0  0  0
    5.6967    0.8158    2.6904 C   0  0  0  0  0  0  0  0  0  0  0  0
    6.4922    0.2877    1.7042 C   0  0  0  0  0  0  0  0  0  0  0  0
  1  2  2  0
  2  3  1  0
  3  4  2  0
  4  5  1  0
  5  6  2  0
  6  1  1  0
  7  1  1  0
  8  7  1  0
  9  8  1  0
 10  9  1  0
 11 10  1  0
 12 11  1  0
 13 12  1  0
 14 13  1  0
 15 14  1  0
 16 15  1  0
 17 16  2  0
 18 17  1  0
 19 18  2  0
 20 19  1  0
 21 16  1  0
 22  4  1  0
 23 22  1  0
 24 23  1  0
 25 24  1  0
 26 25  1  0
 27 26  1  0
 28 27  1  0
 29 28  1  0
 30 29  1  0
 31 30  1  0
 32 31  1  0
 33 32  2  0
 34 19  1  0
 35 34  2  0
 36 31  2  0
 20 21  2  0
 33 34  1  0
 35 36  1  0
M  CHG  2  16   1  31   1
M  END
>  <_TriposChargeType>  (205) 
USER_CHARGES

$$$$
YUPHIA
     RDKit          3D

 19 19  0  0  0  0  0  0  0  0999 V2000
    2.0158    2.6731    2.8529 O   0  0  0  0  0  0  0  0  0  0  0  0
    5.7640    3.5836    4.0140 O   0  0  0  0  0  0  0  0  0  0  0  0
    4.0365    7.3546    2.8682 O   0  0  0  0  0  0  0  0  0  0  0  0
    3.8885    1.4712    3.1590 N   0  0  0  0  0  0  0  0  0  0  0  0
    3.7971    4.3302    4.8297 N   0  0  0  0  0  0  0  0  0  0  0  0
    2.9944    5.4029    2.4537 N   0  0  0  0  0  0  0  0  0  0  0  0
    2.8801    1.9139    2.4000 C   0  0  0  0  0  0  0  0  0  0  0  0
    4.0990    1.9328    4.5322 C   0  0  2  0  0  0  0  0  0  0  0  0
    4.6354    3.3536    4.4516 C   0  0  0  0  0  0  0  0  0  0  0  0
    4.1019    5.7243    4.5878 C   0  0  0  0  0  0  0  0  0  0  0  0
    3.7145    6.2236    3.2156 C   0  0  0  0  0  0  0  0  0  0  0  0
    2.5705    5.7196    1.0968 C   0  0  0  0  0  0  0  0  0  0  0  0
    3.4914    5.1793    0.0173 C   0  0  1  0  0  0  0  0  0  0  0  0
    3.8135    3.6938    0.1631 C   0  0  0  0  0  0  0  0  0  0  0  0
    2.6686    2.6715    0.0134 C   0  0  2  0  0  0  0  0  0  0  0  0
    2.8829    1.4870    0.9538 C   0  0  0  0  0  0  0  0  0  0  0  0
    5.0795    1.0349    5.2346 C   0  0  0  0  0  0  0  0  0  0  0  0
    2.9464    5.5605   -1.3521 C   0  0  0  0  0  0  0  0  0  0  0  0
    2.5013    2.1517   -1.4145 C   0  0  0  0  0  0  0  0  0  0  0  0
  1  7  2  0
  2  9  2  0
  3 11  2  0
  4  7  1  0
  5  9  1  0
  6 11  1  0
  7 16  1  0
  8  4  1  0
  9  8  1  0
 10  5  1  0
 11 10  1  0
 12  6  1  0
 13 12  1  0
 14 13  1  0
 15 14  1  0
 16 15  1  0
  8 17  1  6
 13 18  1  6
 15 19  1  6
M  END
>  <_TriposChargeType>  (206) 
NO_CHARGES

$$$$
ZOYJEC
     RDKit          3D

 21 22  0  0  0  0  0  0  0  0999 V2000
    0.5701   19.0758    9.1952 Br  0  0  0  0  0  0  0  0  0  0  0  0
    1.4481   25.0267    8.0604 C   0  0  0  0  0  0  0  0  0  0  0  0
    2.4480   25.1838    9.1944 C   0  0  0  0  0  0  0  0  0  0  0  0
    2.0970   25.5725   10.2840 O   0  0  0  0  0  0  0  0  0  0  0  0
    3.8885   24.7564    8.9558 C   0  0  0  0  0  0  0  0  0  0  0  0
    4.4427   23.7575    9.9823 C   0  0  0  0  0  0  0  0  0  0  0  0
    3.9478   22.3312    9.8324 C   0  0  0  0  0  0  0  0  0  0  0  0
    4.5475   21.5949    8.6363 C   0  0  0  0  0  0  0  0  0  0  0  0
    3.9239   20.2381    8.3059 C   0  0  0  0  0  0  0  0  0  0  0  0
    2.7838   20.2536    7.2685 C   0  0  0  0  0  0  0  0  0  0  0  0
    1.7195   21.2371    7.6866 C   0  0  0  0  0  0  0  0  0  0  0  0
    0.7802   20.8921    8.6432 C   0  0  0  0  0  0  0  0  0  0  0  0
   -0.0290   21.8060    9.2753 C   0  0  0  0  0  0  0  0  0  0  0  0
    0.1603   23.1293    9.0139 C   0  0  0  0  0  0  0  0  0  0  0  0
    1.0858   23.5412    8.0456 C   0  0  0  0  0  0  0  0  0  0  0  0
    1.7928   22.5912    7.3178 C   0  0  0  0  0  0  0  0  0  0  0  0
    2.6134   22.9929    6.1158 C   0  0  0  0  0  0  0  0  0  0  0  0
    1.7334   22.9311    4.9729 O   0  0  0  0  0  0  0  0  0  0  0  0
    2.3192   22.8925    3.7847 C   0  0  0  0  0  0  0  0  0  0  0  0
    3.4883   22.8847    3.6407 O   0  0  0  0  0  0  0  0  0  0  0  0
    1.3408   22.8847    2.6635 C   0  0  0  0  0  0  0  0  0  0  0  0
  1 12  1  0
  2  3  1  0
  3  4  2  0
  5  3  1  0
  6  5  1  0
  7  6  1  0
  8  7  1  0
  9  8  1  0
 10  9  1  0
 11 10  1  0
 12 11  2  0
 13 12  1  0
 14 13  2  0
 15  2  1  0
 16 11  1  0
 17 16  1  0
 18 17  1  0
 19 18  1  0
 20 19  2  0
 21 19  1  0
 14 15  1  0
 15 16  2  0
M  END
>  <_TriposChargeType>  (207) 
NO_CHARGES

$$$$
ZZZMZM01
     RDKit          3D

 26 26  0  0  0  0  0  0  0  0999 V2000
    5.5968    3.7339    1.7047 O   0  0  0  0  0  0  0  0  0  0  0  0
    2.0927    5.3022    9.0148 C   0  0  0  0  0  0  0  0  0  0  0  0
    1.0391    1.0702    8.8043 C   0  0  0  0  0  0  0  0  0  0  0  0
    1.6037    2.8262   13.5823 O   0  0  0  0  0  0  0  0  0  0  0  0
    0.9802    5.2128   10.0302 C   0  0  0  0  0  0  0  0  0  0  0  0
    2.2906    1.1718    7.9597 C   0  0  0  0  0  0  0  0  0  0  0  0
    4.4024    3.8574    1.5694 C   0  0  0  0  0  0  0  0  0  0  0  0
    1.4451    5.2860   11.4712 C   0  0  0  0  0  0  0  0  0  0  0  0
    2.0400    1.1742    6.4649 C   0  0  0  0  0  0  0  0  0  0  0  0
    3.7681    5.2226    1.5617 C   0  0  0  0  0  0  0  0  0  0  0  0
    0.3501    5.1129   12.5212 C   0  0  0  0  0  0  0  0  0  0  0  0
    3.2849    1.1775    5.6100 C   0  0  0  0  0  0  0  0  0  0  0  0
    2.7418    5.4339    2.6526 C   0  0  0  0  0  0  0  0  0  0  0  0
   -0.2999    3.7371   12.5089 C   0  0  0  0  0  0  0  0  0  0  0  0
    3.0351    1.2579    4.1219 C   0  0  0  0  0  0  0  0  0  0  0  0
    3.3023    5.3079    4.0595 C   0  0  0  0  0  0  0  0  0  0  0  0
    0.5936    2.6052   12.9533 C   0  0  0  0  0  0  0  0  0  0  0  0
    4.2995    1.2091    3.2761 C   0  0  0  0  0  0  0  0  0  0  0  0
    2.2373    5.3591    5.1266 C   0  0  0  0  0  0  0  0  0  0  0  0
    0.1695    1.2026   12.6238 C   0  0  0  0  0  0  0  0  0  0  0  0
    4.0920    1.3262    1.7699 C   0  0  0  0  0  0  0  0  0  0  0  0
    2.7339    5.3014    6.5442 C   0  0  0  0  0  0  0  0  0  0  0  0
    0.0044    0.9369   11.1219 C   0  0  0  0  0  0  0  0  0  0  0  0
    3.5176    2.6588    1.3303 C   0  0  0  0  0  0  0  0  0  0  0  0
    1.6315    5.2721    7.5807 C   0  0  0  0  0  0  0  0  0  0  0  0
    1.2647    1.1539   10.3045 C   0  0  0  0  0  0  0  0  0  0  0  0
  1  7  2  0
  2  5  1  0
  3  6  1  0
  4 17  2  0
  5  8  1  0
  6  9  1  0
  7 10  1  0
  8 11  1  0
  9 12  1  0
 10 13  1  0
 11 14  1  0
 12 15  1  0
 13 16  1  0
 14 17  1  0
 15 18  1  0
 16 19  1  0
 17 20  1  0
 18 21  1  0
 19 22  1  0
 20 23  1  0
 21 24  1  0
 22 25  1  0
 23 26  1  0
 24  7  1  0
 25  2  1  0
 26  3  1  0
M  END
>  <_TriposChargeType>  (208) 
NO_CHARGES

$$$$
